
 OpenBabel02242207113D

 57 58  0  0  1  0  0  0  0  0999 V2000
    3.1256    0.5749    1.0662 C   0  0  0  0  0  0  0  0  0  0  0  0
    2.5397   -0.7992    0.8907 C   0  0  0  0  0  0  0  0  0  0  0  0
    1.3114   -0.9546    0.8657 O   0  0  0  0  0  0  0  0  0  0  0  0
    3.4065   -1.9659    0.6977 C   0  0  0  0  0  0  0  0  0  0  0  0
    4.7149   -1.9251    0.6920 C   0  0  0  0  0  0  0  0  0  0  0  0
    6.0200   -1.9724    0.6909 C   0  0  0  0  0  0  0  0  0  0  0  0
    6.7676   -2.3093    1.9860 C   0  0  0  0  0  0  0  0  0  0  0  0
    7.9907   -3.2130    1.6854 C   0  0  0  0  0  0  0  0  0  0  0  0
    8.8925   -2.7169    0.5677 C   0  0  3  0  0  0  0  0  0  0  0  0
    8.0999   -2.5501   -0.7180 C   0  0  0  0  0  0  0  0  0  0  0  0
    6.8154   -1.6849   -0.5922 C   0  0  3  0  0  0  0  0  0  0  0  0
    6.0097   -2.0339   -1.8704 C   0  0  0  0  0  0  0  0  0  0  0  0
    7.3195   -0.3163   -0.6468 O   0  0  0  0  0  0  0  0  0  0  0  0
    6.3890    0.7711   -0.5929 C   0  0  3  0  0  0  0  0  0  0  0  0
    7.1265    2.1263   -0.4502 C   0  0  3  0  0  0  0  0  0  0  0  0
    7.9241    2.4299   -1.7252 C   0  0  3  0  0  0  0  0  0  0  0  0
    6.9978    2.3895   -2.9442 C   0  0  3  0  0  0  0  0  0  0  0  0
    6.2539    1.0451   -2.9693 C   0  0  3  0  0  0  0  0  0  0  0  0
    5.5327    0.8300   -1.7394 O   0  0  0  0  0  0  0  0  0  0  0  0
    5.2399    0.9285   -4.1113 C   0  0  0  0  0  0  0  0  0  0  0  0
    4.2194    1.9188   -3.9709 O   0  0  0  0  0  0  0  0  0  0  0  0
    6.1246    3.5273   -2.8220 O   0  0  0  0  0  0  0  0  0  0  0  0
    8.5170    3.7357   -1.6061 O   0  0  0  0  0  0  0  0  0  0  0  0
    7.9978    2.1571    0.6855 O   0  0  0  0  0  0  0  0  0  0  0  0
    9.5943   -1.5410    0.9360 O   0  0  0  0  0  0  0  0  0  0  0  0
    7.1782   -1.0237    2.7280 C   0  0  0  0  0  0  0  0  0  0  0  0
    5.8828   -3.1237    2.9741 C   0  0  0  0  0  0  0  0  0  0  0  0
    2.3550    1.2592    1.4473 H   0  0  0  0  0  0  0  0  0  0  0  0
    3.4713    0.9519    0.1045 H   0  0  0  0  0  0  0  0  0  0  0  0
    3.9338    0.5492    1.7969 H   0  0  0  0  0  0  0  0  0  0  0  0
    2.8788   -2.9121    0.5625 H   0  0  0  0  0  0  0  0  0  0  0  0
    7.6299   -4.2120    1.4019 H   0  0  0  0  0  0  0  0  0  0  0  0
    8.5844   -3.3465    2.6001 H   0  0  0  0  0  0  0  0  0  0  0  0
    9.6628   -3.4797    0.3942 H   0  0  0  0  0  0  0  0  0  0  0  0
    7.8308   -3.5534   -1.0712 H   0  0  0  0  0  0  0  0  0  0  0  0
    8.7654   -2.1070   -1.4747 H   0  0  0  0  0  0  0  0  0  0  0  0
    5.7207   -3.0940   -1.8666 H   0  0  0  0  0  0  0  0  0  0  0  0
    6.5960   -1.8599   -2.7744 H   0  0  0  0  0  0  0  0  0  0  0  0
    5.0837   -1.4610   -1.9664 H   0  0  0  0  0  0  0  0  0  0  0  0
    5.7733    0.6542    0.3003 H   0  0  0  0  0  0  0  0  0  0  0  0
    6.3849    2.9216   -0.2947 H   0  0  0  0  0  0  0  0  0  0  0  0
    8.7491    1.7172   -1.8323 H   0  0  0  0  0  0  0  0  0  0  0  0
    7.5759    2.5278   -3.8657 H   0  0  0  0  0  0  0  0  0  0  0  0
    6.9926    0.2481   -3.0992 H   0  0  0  0  0  0  0  0  0  0  0  0
    4.7531   -0.0539   -4.0976 H   0  0  0  0  0  0  0  0  0  0  0  0
    5.7247    1.0558   -5.0843 H   0  0  0  0  0  0  0  0  0  0  0  0
    3.6169    1.5812   -3.2759 H   0  0  0  0  0  0  0  0  0  0  0  0
    5.2080    3.2191   -3.0837 H   0  0  0  0  0  0  0  0  0  0  0  0
    7.8738    4.3484   -2.0269 H   0  0  0  0  0  0  0  0  0  0  0  0
    8.5681    2.9407    0.5411 H   0  0  0  0  0  0  0  0  0  0  0  0
    9.0704   -0.7611    0.6633 H   0  0  0  0  0  0  0  0  0  0  0  0
    7.6777   -0.2981    2.0851 H   0  0  0  0  0  0  0  0  0  0  0  0
    7.8520   -1.2505    3.5625 H   0  0  0  0  0  0  0  0  0  0  0  0
    6.3007   -0.5165    3.1467 H   0  0  0  0  0  0  0  0  0  0  0  0
    5.4924   -4.0345    2.5028 H   0  0  0  0  0  0  0  0  0  0  0  0
    5.0282   -2.5382    3.3311 H   0  0  0  0  0  0  0  0  0  0  0  0
    6.4560   -3.4280    3.8556 H   0  0  0  0  0  0  0  0  0  0  0  0
  1  2  1  0  0  0  0
  1 28  1  0  0  0  0
  1 29  1  0  0  0  0
  1 30  1  0  0  0  0
  2  3  2  0  0  0  0
  2  4  1  0  0  0  0
  4  5  2  0  0  0  0
  4 31  1  0  0  0  0
  5  6  2  0  0  0  0
  6  7  1  0  0  0  0
  6 11  1  0  0  0  0
  7  8  1  0  0  0  0
  7 26  1  0  0  0  0
  7 27  1  0  0  0  0
  8  9  1  0  0  0  0
  8 32  1  0  0  0  0
  8 33  1  0  0  0  0
  9 10  1  0  0  0  0
  9 25  1  0  0  0  0
  9 34  1  0  0  0  0
 10 11  1  0  0  0  0
 10 35  1  0  0  0  0
 10 36  1  0  0  0  0
 11 12  1  0  0  0  0
 11 13  1  0  0  0  0
 12 37  1  0  0  0  0
 12 38  1  0  0  0  0
 12 39  1  0  0  0  0
 13 14  1  0  0  0  0
 14 15  1  0  0  0  0
 14 19  1  0  0  0  0
 14 40  1  0  0  0  0
 15 16  1  0  0  0  0
 15 24  1  0  0  0  0
 15 41  1  0  0  0  0
 16 17  1  0  0  0  0
 16 23  1  0  0  0  0
 16 42  1  0  0  0  0
 17 18  1  0  0  0  0
 17 22  1  0  0  0  0
 17 43  1  0  0  0  0
 18 19  1  0  0  0  0
 18 20  1  0  0  0  0
 18 44  1  0  0  0  0
 20 21  1  0  0  0  0
 20 45  1  0  0  0  0
 20 46  1  0  0  0  0
 21 47  1  0  0  0  0
 22 48  1  0  0  0  0
 23 49  1  0  0  0  0
 24 50  1  0  0  0  0
 25 51  1  0  0  0  0
 26 52  1  0  0  0  0
 26 53  1  0  0  0  0
 26 54  1  0  0  0  0
 27 55  1  0  0  0  0
 27 56  1  0  0  0  0
 27 57  1  0  0  0  0
M  END
$$$$
