
 OpenBabel02242207123D

 95100  0  0  1  0  0  0  0  0999 V2000
   -6.3900    5.6343   -4.7163 C   0  0  0  0  0  0  0  0  0  0  0  0
   -6.3418    6.9055   -5.2873 C   0  0  0  0  0  0  0  0  0  0  0  0
   -6.2353    7.9937   -4.4414 C   0  0  0  0  0  0  0  0  0  0  0  0
   -6.3631    7.8261   -3.0633 C   0  0  0  0  0  0  0  0  0  0  0  0
   -6.4144    6.5601   -2.4914 C   0  0  0  0  0  0  0  0  0  0  0  0
   -6.2857    5.4410   -3.3111 C   0  0  0  0  0  0  0  0  0  0  0  0
   -6.2002    4.0572   -2.8126 C   0  0  0  0  0  0  0  0  0  0  0  0
   -5.3745    3.4839   -1.8080 C   0  0  0  0  0  0  0  0  0  0  0  0
   -5.7002    2.1404   -1.5525 C   0  0  0  0  0  0  0  0  0  0  0  0
   -6.7583    1.4816   -2.1431 C   0  0  0  0  0  0  0  0  0  0  0  0
   -7.2440    0.1366   -1.8555 C   0  0  0  0  0  0  0  0  0  0  0  0
   -8.4819   -0.1277   -2.3825 C   0  0  0  0  0  0  0  0  0  0  0  0
   -9.1659    0.7433   -3.2362 C   0  0  0  0  0  0  0  0  0  0  0  0
   -8.5991    1.9380   -3.6142 C   0  0  0  0  0  0  0  0  0  0  0  0
   -7.4192    2.2518   -3.0620 C   0  0  0  0  0  0  0  0  0  0  0  0
   -6.8877    3.3634   -3.5338 O   0  3  0  0  0  0  0  0  0  0  0  0
  -10.3761    0.4026   -3.7254 O   0  0  0  0  0  0  0  0  0  0  0  0
   -6.4953   -0.8220   -1.1801 O   0  0  0  0  0  0  0  0  0  0  0  0
   -7.0434   -2.1597   -0.7747 C   0  0  3  0  0  0  0  0  0  0  0  0
   -7.4430   -3.1696   -1.8929 C   0  0  3  0  0  0  0  0  0  0  0  0
   -6.2268   -3.4865   -2.7694 C   0  0  3  0  0  0  0  0  0  0  0  0
   -4.9473   -3.6636   -1.9351 C   0  0  3  0  0  0  0  0  0  0  0  0
   -5.2544   -3.9192   -0.4570 C   0  0  3  0  0  0  0  0  0  0  0  0
   -6.1053   -2.8743    0.1069 O   0  0  0  0  0  0  0  0  0  0  0  0
   -5.6897   -5.3931   -0.1546 C   0  0  0  0  0  0  0  0  0  0  0  0
   -6.8115   -5.8733   -0.8899 O   0  0  0  0  0  0  0  0  0  0  0  0
   -4.0862   -4.6555   -2.4975 O   0  0  0  0  0  0  0  0  0  0  0  0
   -6.4732   -4.6913   -3.5238 O   0  0  0  0  0  0  0  0  0  0  0  0
   -8.5832   -2.8667   -2.6967 O   0  0  0  0  0  0  0  0  0  0  0  0
   -4.2465    4.0668   -1.2980 O   0  0  0  0  0  0  0  0  0  0  0  0
   -3.7378    3.7245    0.0233 C   0  0  3  0  0  0  0  0  0  0  0  0
   -3.8494    2.3846    0.8212 C   0  0  3  0  0  0  0  0  0  0  0  0
   -2.6466    1.5796    0.4303 C   0  0  3  0  0  0  0  0  0  0  0  0
   -1.4545    2.5663    0.2274 C   0  0  3  0  0  0  0  0  0  0  0  0
   -1.4834    3.8731    1.0462 C   0  0  3  0  0  0  0  0  0  0  0  0
   -2.6706    4.5850    0.5837 O   0  0  0  0  0  0  0  0  0  0  0  0
   -1.1922    3.7231    2.5878 C   0  0  0  0  0  0  0  0  0  0  0  0
   -1.1827    4.9946    3.2497 O   0  0  0  0  0  0  0  0  0  0  0  0
   -0.2595    1.8372    0.3115 O   0  0  0  0  0  0  0  0  0  0  0  0
   -2.3361    0.6604    1.4819 O   0  0  0  0  0  0  0  0  0  0  0  0
   -5.1146    1.7562    1.0689 O   0  0  0  0  0  0  0  0  0  0  0  0
   -6.2321    2.4280    1.7193 C   0  0  3  0  0  0  0  0  0  0  0  0
   -6.1244    2.4492    3.2466 C   0  0  3  0  0  0  0  0  0  0  0  0
   -4.8305    3.1433    3.6148 C   0  0  3  0  0  0  0  0  0  0  0  0
   -4.6628    4.4366    2.7838 C   0  0  3  0  0  0  0  0  0  0  0  0
   -5.8129    4.8365    1.7866 C   0  0  3  0  0  0  0  0  0  0  0  0
   -6.5591    3.7310    1.2235 O   0  0  0  0  0  0  0  0  0  0  0  0
   -6.5624    6.0304    2.2834 C   0  0  0  0  0  0  0  0  0  0  0  0
   -7.5801    6.3529    1.3471 O   0  0  0  0  0  0  0  0  0  0  0  0
   -3.8616    5.4701    3.3432 O   0  0  0  0  0  0  0  0  0  0  0  0
   -4.6371    3.4661    4.9717 O   0  0  0  0  0  0  0  0  0  0  0  0
   -6.1487    1.1177    3.7478 O   0  0  0  0  0  0  0  0  0  0  0  0
   -6.3386    8.9021   -2.2264 O   0  0  0  0  0  0  0  0  0  0  0  0
   -5.9294    9.2339   -4.9193 O   0  0  0  0  0  0  0  0  0  0  0  0
   -6.4753    4.7755   -5.3844 H   0  0  0  0  0  0  0  0  0  0  0  0
   -6.3433    7.0132   -6.3687 H   0  0  0  0  0  0  0  0  0  0  0  0
   -6.5232    6.4777   -1.4117 H   0  0  0  0  0  0  0  0  0  0  0  0
   -5.2596    1.5706   -0.7845 H   0  0  0  0  0  0  0  0  0  0  0  0
   -8.9930   -1.0469   -2.1672 H   0  0  0  0  0  0  0  0  0  0  0  0
   -9.0938    2.5970   -4.3175 H   0  0  0  0  0  0  0  0  0  0  0  0
  -10.6878   -0.4045   -3.2740 H   0  0  0  0  0  0  0  0  0  0  0  0
   -7.9140   -1.9542   -0.1388 H   0  0  0  0  0  0  0  0  0  0  0  0
   -7.7820   -4.0617   -1.3723 H   0  0  0  0  0  0  0  0  0  0  0  0
   -6.0552   -2.6931   -3.5053 H   0  0  0  0  0  0  0  0  0  0  0  0
   -4.3939   -2.7190   -1.9714 H   0  0  0  0  0  0  0  0  0  0  0  0
   -4.3091   -3.8301    0.0962 H   0  0  0  0  0  0  0  0  0  0  0  0
   -5.9363   -5.5064    0.9051 H   0  0  0  0  0  0  0  0  0  0  0  0
   -4.8660   -6.0839   -0.3764 H   0  0  0  0  0  0  0  0  0  0  0  0
   -6.5687   -5.9169   -1.8358 H   0  0  0  0  0  0  0  0  0  0  0  0
   -4.6070   -5.1462   -3.1667 H   0  0  0  0  0  0  0  0  0  0  0  0
   -6.9140   -4.4274   -4.3549 H   0  0  0  0  0  0  0  0  0  0  0  0
   -8.7498   -3.6055   -3.3074 H   0  0  0  0  0  0  0  0  0  0  0  0
   -4.5017    4.2088    0.4766 H   0  0  0  0  0  0  0  0  0  0  0  0
   -3.5052    2.5025    1.8189 H   0  0  0  0  0  0  0  0  0  0  0  0
   -2.8651    0.9983   -0.4610 H   0  0  0  0  0  0  0  0  0  0  0  0
   -1.5487    2.9405   -0.7963 H   0  0  0  0  0  0  0  0  0  0  0  0
   -0.6827    4.5561    0.7401 H   0  0  0  0  0  0  0  0  0  0  0  0
   -0.1782    3.3174    2.7078 H   0  0  0  0  0  0  0  0  0  0  0  0
   -1.8533    3.0477    3.1379 H   0  0  0  0  0  0  0  0  0  0  0  0
   -1.9374    5.0655    3.8675 H   0  0  0  0  0  0  0  0  0  0  0  0
   -0.2452    1.3176   -0.5136 H   0  0  0  0  0  0  0  0  0  0  0  0
   -1.3938    0.4253    1.3771 H   0  0  0  0  0  0  0  0  0  0  0  0
   -7.0963    1.7976    1.4516 H   0  0  0  0  0  0  0  0  0  0  0  0
   -6.9546    3.0061    3.6854 H   0  0  0  0  0  0  0  0  0  0  0  0
   -4.0446    2.3842    3.4726 H   0  0  0  0  0  0  0  0  0  0  0  0
   -3.8721    4.0817    2.2009 H   0  0  0  0  0  0  0  0  0  0  0  0
   -5.4946    5.3717    0.8702 H   0  0  0  0  0  0  0  0  0  0  0  0
   -5.8419    6.8632    2.2983 H   0  0  0  0  0  0  0  0  0  0  0  0
   -6.9592    5.8262    3.2681 H   0  0  0  0  0  0  0  0  0  0  0  0
   -8.0311    7.1352    1.7074 H   0  0  0  0  0  0  0  0  0  0  0  0
   -3.1665    5.6629    2.6572 H   0  0  0  0  0  0  0  0  0  0  0  0
   -3.9464    4.1637    4.9300 H   0  0  0  0  0  0  0  0  0  0  0  0
   -5.7559    1.1576    4.6387 H   0  0  0  0  0  0  0  0  0  0  0  0
   -6.0189    9.6474   -2.7740 H   0  0  0  0  0  0  0  0  0  0  0  0
   -5.5607    9.1320   -5.8167 H   0  0  0  0  0  0  0  0  0  0  0  0
  1  2  2  0  0  0  0
  1  6  1  0  0  0  0
  1 55  1  0  0  0  0
  2  3  1  0  0  0  0
  2 56  1  0  0  0  0
  3  4  2  0  0  0  0
  3 54  1  0  0  0  0
  4  5  1  0  0  0  0
  4 53  1  0  0  0  0
  5  6  2  0  0  0  0
  5 57  1  0  0  0  0
  6  7  1  0  0  0  0
  7  8  2  0  0  0  0
  7 16  1  0  0  0  0
  8  9  1  0  0  0  0
  8 30  1  0  0  0  0
  9 10  2  0  0  0  0
  9 58  1  0  0  0  0
 10 11  1  0  0  0  0
 10 15  1  0  0  0  0
 11 12  2  0  0  0  0
 11 18  1  0  0  0  0
 12 13  1  0  0  0  0
 12 59  1  0  0  0  0
 13 14  2  0  0  0  0
 13 17  1  0  0  0  0
 14 15  1  0  0  0  0
 14 60  1  0  0  0  0
 15 16  2  0  0  0  0
 17 61  1  0  0  0  0
 18 19  1  0  0  0  0
 19 20  1  0  0  0  0
 19 24  1  0  0  0  0
 19 62  1  0  0  0  0
 20 21  1  0  0  0  0
 20 29  1  0  0  0  0
 20 63  1  0  0  0  0
 21 22  1  0  0  0  0
 21 28  1  0  0  0  0
 21 64  1  0  0  0  0
 22 23  1  0  0  0  0
 22 27  1  0  0  0  0
 22 65  1  0  0  0  0
 23 24  1  0  0  0  0
 23 25  1  0  0  0  0
 23 66  1  0  0  0  0
 25 26  1  0  0  0  0
 25 67  1  0  0  0  0
 25 68  1  0  0  0  0
 26 69  1  0  0  0  0
 27 70  1  0  0  0  0
 28 71  1  0  0  0  0
 29 72  1  0  0  0  0
 30 31  1  0  0  0  0
 31 32  1  0  0  0  0
 31 36  1  0  0  0  0
 31 73  1  0  0  0  0
 32 33  1  0  0  0  0
 32 41  1  0  0  0  0
 32 74  1  0  0  0  0
 33 34  1  0  0  0  0
 33 40  1  0  0  0  0
 33 75  1  0  0  0  0
 34 35  1  0  0  0  0
 34 39  1  0  0  0  0
 34 76  1  0  0  0  0
 35 36  1  0  0  0  0
 35 37  1  0  0  0  0
 35 77  1  0  0  0  0
 37 38  1  0  0  0  0
 37 78  1  0  0  0  0
 37 79  1  0  0  0  0
 38 80  1  0  0  0  0
 39 81  1  0  0  0  0
 40 82  1  0  0  0  0
 41 42  1  0  0  0  0
 42 43  1  0  0  0  0
 42 47  1  0  0  0  0
 42 83  1  0  0  0  0
 43 44  1  0  0  0  0
 43 52  1  0  0  0  0
 43 84  1  0  0  0  0
 44 45  1  0  0  0  0
 44 51  1  0  0  0  0
 44 85  1  0  0  0  0
 45 46  1  0  0  0  0
 45 50  1  0  0  0  0
 45 86  1  0  0  0  0
 46 47  1  0  0  0  0
 46 48  1  0  0  0  0
 46 87  1  0  0  0  0
 48 49  1  0  0  0  0
 48 88  1  0  0  0  0
 48 89  1  0  0  0  0
 49 90  1  0  0  0  0
 50 91  1  0  0  0  0
 51 92  1  0  0  0  0
 52 93  1  0  0  0  0
 53 94  1  0  0  0  0
 54 95  1  0  0  0  0
M  CHG  1  16   1
M  END
$$$$
