
 OpenBabel02242207143D

 68 72  0  0  1  0  0  0  0  0999 V2000
    0.6942    0.3695    0.2505 C   0  0  0  0  0  0  0  0  0  0  0  0
    2.2148    0.2530    0.1294 C   0  0  3  0  0  0  0  0  0  0  0  0
    2.7234   -1.1993    0.1341 C   0  0  3  0  0  0  0  0  0  0  0  0
    2.6189   -1.8729   -1.2489 C   0  0  3  0  0  0  0  0  0  0  0  0
    3.2435   -1.0026   -2.3496 C   0  0  3  0  0  0  0  0  0  0  0  0
    2.4962    0.3603   -2.2583 C   0  0  3  0  0  0  0  0  0  0  0  0
    2.7509    0.9809   -0.9911 O   0  0  0  0  0  0  0  0  0  0  0  0
    2.8698    1.1781   -3.3717 O   0  0  0  0  0  0  0  0  0  0  0  0
    2.2729    2.4239   -3.5099 C   0  0  0  0  0  0  0  0  0  0  0  0
    2.5532    3.2607   -4.5385 C   0  0  0  0  0  0  0  0  0  0  0  0
    2.0046    4.5468   -4.6530 O   0  0  0  0  0  0  0  0  0  0  0  0
    1.5249    5.1327   -3.5034 C   0  0  0  0  0  0  0  0  0  0  0  0
    1.4003    6.5214   -3.4580 C   0  0  0  0  0  0  0  0  0  0  0  0
    0.9662    7.1192   -2.2744 C   0  0  0  0  0  0  0  0  0  0  0  0
    0.6688    6.3587   -1.1439 C   0  0  0  0  0  0  0  0  0  0  0  0
    0.7642    4.9709   -1.2098 C   0  0  0  0  0  0  0  0  0  0  0  0
    1.1661    4.3639   -2.3999 C   0  0  0  0  0  0  0  0  0  0  0  0
    1.1959    2.9140   -2.6023 C   0  0  0  0  0  0  0  0  0  0  0  0
    0.3116    2.1833   -2.1752 O   0  0  0  0  0  0  0  0  0  0  0  0
    0.5111    4.2166   -0.1016 O   0  0  0  0  0  0  0  0  0  0  0  0
    0.8247    8.4719   -2.1673 O   0  0  0  0  0  0  0  0  0  0  0  0
    3.4259    2.8899   -5.6884 C   0  0  0  0  0  0  0  0  0  0  0  0
    4.5327    2.0307   -5.5356 C   0  0  0  0  0  0  0  0  0  0  0  0
    5.3240    1.6852   -6.6268 C   0  0  0  0  0  0  0  0  0  0  0  0
    5.0421    2.1962   -7.8827 C   0  0  0  0  0  0  0  0  0  0  0  0
    3.9671    3.0540   -8.0550 C   0  0  0  0  0  0  0  0  0  0  0  0
    3.1601    3.4046   -6.9746 C   0  0  0  0  0  0  0  0  0  0  0  0
    3.6970    3.5627   -9.2932 O   0  0  0  0  0  0  0  0  0  0  0  0
    5.8245    1.8718   -8.9566 O   0  0  0  0  0  0  0  0  0  0  0  0
    6.3995    0.8515   -6.4986 O   0  0  0  0  0  0  0  0  0  0  0  0
    4.6760   -0.9026   -2.0873 O   0  0  0  0  0  0  0  0  0  0  0  0
    5.4811   -1.9149   -2.5667 C   0  0  0  0  0  0  0  0  0  0  0  0
    5.2231   -2.6681   -3.4823 O   0  0  0  0  0  0  0  0  0  0  0  0
    6.7147   -1.9877   -1.7269 C   0  0  0  0  0  0  0  0  0  0  0  0
    6.6399   -1.6755   -0.3586 C   0  0  0  0  0  0  0  0  0  0  0  0
    7.7795   -1.6971    0.4302 C   0  0  0  0  0  0  0  0  0  0  0  0
    8.9959   -2.0522   -0.1287 C   0  0  0  0  0  0  0  0  0  0  0  0
    9.0741   -2.3950   -1.4746 C   0  0  0  0  0  0  0  0  0  0  0  0
    7.9384   -2.3825   -2.2840 C   0  0  0  0  0  0  0  0  0  0  0  0
   10.2840   -2.7249   -2.0145 O   0  0  0  0  0  0  0  0  0  0  0  0
   10.1299   -2.0593    0.6360 O   0  0  0  0  0  0  0  0  0  0  0  0
    7.7488   -1.3551    1.7522 O   0  0  0  0  0  0  0  0  0  0  0  0
    3.2415   -3.1642   -1.1704 O   0  0  0  0  0  0  0  0  0  0  0  0
    2.0613   -2.0070    1.1083 O   0  0  0  0  0  0  0  0  0  0  0  0
    0.3421   -0.0223    1.2109 H   0  0  0  0  0  0  0  0  0  0  0  0
    0.1756   -0.1752   -0.5433 H   0  0  0  0  0  0  0  0  0  0  0  0
    0.3812    1.4155    0.1911 H   0  0  0  0  0  0  0  0  0  0  0  0
    2.6154    0.7496    1.0235 H   0  0  0  0  0  0  0  0  0  0  0  0
    3.7670   -1.1746    0.4455 H   0  0  0  0  0  0  0  0  0  0  0  0
    1.5637   -2.0578   -1.4778 H   0  0  0  0  0  0  0  0  0  0  0  0
    3.0957   -1.4357   -3.3451 H   0  0  0  0  0  0  0  0  0  0  0  0
    1.4300    0.1385   -2.3700 H   0  0  0  0  0  0  0  0  0  0  0  0
    1.6502    7.1155   -4.3311 H   0  0  0  0  0  0  0  0  0  0  0  0
    0.3622    6.8616   -0.2314 H   0  0  0  0  0  0  0  0  0  0  0  0
    0.2515    4.7904    0.6374 H   0  0  0  0  0  0  0  0  0  0  0  0
    0.9867    8.8810   -3.0339 H   0  0  0  0  0  0  0  0  0  0  0  0
    4.7842    1.6258   -4.5616 H   0  0  0  0  0  0  0  0  0  0  0  0
    2.3207    4.0729   -7.1519 H   0  0  0  0  0  0  0  0  0  0  0  0
    4.3880    3.1794   -9.8719 H   0  0  0  0  0  0  0  0  0  0  0  0
    6.5029    1.2707   -8.5835 H   0  0  0  0  0  0  0  0  0  0  0  0
    6.4916    0.6177   -5.5577 H   0  0  0  0  0  0  0  0  0  0  0  0
    5.6921   -1.4151    0.0837 H   0  0  0  0  0  0  0  0  0  0  0  0
    8.0210   -2.6568   -3.3320 H   0  0  0  0  0  0  0  0  0  0  0  0
   10.9184   -2.6503   -1.2712 H   0  0  0  0  0  0  0  0  0  0  0  0
    9.8211   -1.7987    1.5294 H   0  0  0  0  0  0  0  0  0  0  0  0
    6.8450   -1.0722    1.9820 H   0  0  0  0  0  0  0  0  0  0  0  0
    3.3292   -3.5016   -2.0852 H   0  0  0  0  0  0  0  0  0  0  0  0
    2.3499   -2.9232    0.9206 H   0  0  0  0  0  0  0  0  0  0  0  0
  1  2  1  0  0  0  0
  1 45  1  0  0  0  0
  1 46  1  0  0  0  0
  1 47  1  0  0  0  0
  2  3  1  0  0  0  0
  2  7  1  0  0  0  0
  2 48  1  0  0  0  0
  3  4  1  0  0  0  0
  3 44  1  0  0  0  0
  3 49  1  0  0  0  0
  4  5  1  0  0  0  0
  4 43  1  0  0  0  0
  4 50  1  0  0  0  0
  5  6  1  0  0  0  0
  5 31  1  0  0  0  0
  5 51  1  0  0  0  0
  6  7  1  0  0  0  0
  6  8  1  0  0  0  0
  6 52  1  0  0  0  0
  8  9  1  0  0  0  0
  9 10  2  0  0  0  0
  9 18  1  0  0  0  0
 10 11  1  0  0  0  0
 10 22  1  0  0  0  0
 11 12  1  0  0  0  0
 12 13  2  0  0  0  0
 12 17  1  0  0  0  0
 13 14  1  0  0  0  0
 13 53  1  0  0  0  0
 14 15  2  0  0  0  0
 14 21  1  0  0  0  0
 15 16  1  0  0  0  0
 15 54  1  0  0  0  0
 16 17  2  0  0  0  0
 16 20  1  0  0  0  0
 17 18  1  0  0  0  0
 18 19  2  0  0  0  0
 20 55  1  0  0  0  0
 21 56  1  0  0  0  0
 22 23  2  0  0  0  0
 22 27  1  0  0  0  0
 23 24  1  0  0  0  0
 23 57  1  0  0  0  0
 24 25  2  0  0  0  0
 24 30  1  0  0  0  0
 25 26  1  0  0  0  0
 25 29  1  0  0  0  0
 26 27  2  0  0  0  0
 26 28  1  0  0  0  0
 27 58  1  0  0  0  0
 28 59  1  0  0  0  0
 29 60  1  0  0  0  0
 30 61  1  0  0  0  0
 31 32  1  0  0  0  0
 32 33  2  0  0  0  0
 32 34  1  0  0  0  0
 34 35  2  0  0  0  0
 34 39  1  0  0  0  0
 35 36  1  0  0  0  0
 35 62  1  0  0  0  0
 36 37  2  0  0  0  0
 36 42  1  0  0  0  0
 37 38  1  0  0  0  0
 37 41  1  0  0  0  0
 38 39  2  0  0  0  0
 38 40  1  0  0  0  0
 39 63  1  0  0  0  0
 40 64  1  0  0  0  0
 41 65  1  0  0  0  0
 42 66  1  0  0  0  0
 43 67  1  0  0  0  0
 44 68  1  0  0  0  0
M  END
$$$$
