
 OpenBabel02242207453D

 80 84  0  0  1  0  0  0  0  0999 V2000
   13.7705   -5.5286    0.9420 C   0  0  0  0  0  0  0  0  0  0  0  0
   12.9343   -5.0997   -0.2976 C   0  0  0  0  0  0  0  0  0  0  0  0
   11.6272   -4.3556    0.1835 C   0  0  3  0  0  0  0  0  0  0  0  0
   10.6935   -5.2150    1.0462 C   0  0  0  0  0  0  0  0  0  0  0  0
    9.6523   -4.3672    1.7847 C   0  0  0  0  0  0  0  0  0  0  0  0
    8.8323   -3.3488    0.9367 C   0  0  3  0  0  0  0  0  0  0  0  0
    9.7333   -2.6974   -0.1799 C   0  0  3  0  0  0  0  0  0  0  0  0
   10.8114   -3.5849   -0.9150 C   0  0  3  0  0  0  0  0  0  0  0  0
   11.8049   -2.6583   -1.6815 C   0  0  0  0  0  0  0  0  0  0  0  0
   13.0389   -3.3770   -2.2173 C   0  0  0  0  0  0  0  0  0  0  0  0
   13.8037   -4.0964   -1.1107 C   0  0  3  0  0  0  0  0  0  0  0  0
   14.9495   -4.7334   -1.6745 O   0  0  0  0  0  0  0  0  0  0  0  0
   10.1295   -4.4909   -1.9490 C   0  0  0  0  0  0  0  0  0  0  0  0
    8.8941   -1.8331   -1.1149 C   0  0  0  0  0  0  0  0  0  0  0  0
    9.3345   -0.8053   -1.6288 O   0  0  0  0  0  0  0  0  0  0  0  0
    7.5404   -2.2809   -1.4957 C   0  0  0  0  0  0  0  0  0  0  0  0
    6.8884   -3.2674   -0.8632 C   0  0  0  0  0  0  0  0  0  0  0  0
    7.3928   -3.9519    0.4138 C   0  0  3  0  0  0  0  0  0  0  0  0
    7.3275   -5.5080    0.2049 C   0  0  0  0  0  0  0  0  0  0  0  0
    6.7759   -6.1100   -1.1073 C   0  0  0  0  0  0  0  0  0  0  0  0
    5.8961   -5.2334   -2.0437 C   0  0  3  0  0  0  0  0  0  0  0  0
    5.5900   -3.8602   -1.4054 C   0  0  3  0  0  0  0  0  0  0  0  0
    4.7072   -2.9802   -2.3193 C   0  0  0  0  0  0  0  0  0  0  0  0
    3.3553   -3.6692   -2.6832 C   0  0  3  0  0  0  0  0  0  0  0  0
    3.5881   -5.1164   -3.1799 C   0  0  0  0  0  0  0  0  0  0  0  0
    4.5387   -5.9359   -2.2988 C   0  0  0  0  0  0  0  0  0  0  0  0
    2.6874   -2.8400   -3.7978 C   0  0  0  0  0  0  0  0  0  0  0  0
    2.4101   -3.6522   -1.4671 C   0  0  0  0  0  0  0  0  0  0  0  0
    2.6831   -3.1533   -0.3824 O   0  0  0  0  0  0  0  0  0  0  0  0
    1.2044   -4.2262   -1.6751 O   0  0  0  0  0  0  0  0  0  0  0  0
    6.6417   -5.1140   -3.3998 C   0  0  0  0  0  0  0  0  0  0  0  0
    6.3230   -3.6866    1.5418 C   0  0  0  0  0  0  0  0  0  0  0  0
    8.5660   -2.1405    1.9263 C   0  0  0  0  0  0  0  0  0  0  0  0
   12.6787   -6.3993   -1.0924 C   0  0  0  0  0  0  0  0  0  0  0  0
   13.9233   -4.6893    1.6291 H   0  0  0  0  0  0  0  0  0  0  0  0
   14.7608   -5.8965    0.6490 H   0  0  0  0  0  0  0  0  0  0  0  0
   13.2897   -6.3392    1.4989 H   0  0  0  0  0  0  0  0  0  0  0  0
   12.0038   -3.5712    0.8616 H   0  0  0  0  0  0  0  0  0  0  0  0
   11.2600   -5.7488    1.8158 H   0  0  0  0  0  0  0  0  0  0  0  0
   10.2332   -5.9947    0.4401 H   0  0  0  0  0  0  0  0  0  0  0  0
   10.2150   -3.8178    2.5535 H   0  0  0  0  0  0  0  0  0  0  0  0
    8.9814   -5.0213    2.3545 H   0  0  0  0  0  0  0  0  0  0  0  0
   10.3486   -1.9506    0.3484 H   0  0  0  0  0  0  0  0  0  0  0  0
   12.1439   -1.8524   -1.0168 H   0  0  0  0  0  0  0  0  0  0  0  0
   11.3042   -2.1702   -2.5259 H   0  0  0  0  0  0  0  0  0  0  0  0
   13.7046   -2.6450   -2.6929 H   0  0  0  0  0  0  0  0  0  0  0  0
   12.7706   -4.0718   -3.0207 H   0  0  0  0  0  0  0  0  0  0  0  0
   14.1909   -3.3331   -0.4232 H   0  0  0  0  0  0  0  0  0  0  0  0
   14.6586   -5.2717   -2.4296 H   0  0  0  0  0  0  0  0  0  0  0  0
    9.5752   -3.8939   -2.6786 H   0  0  0  0  0  0  0  0  0  0  0  0
    9.4402   -5.1916   -1.4885 H   0  0  0  0  0  0  0  0  0  0  0  0
   10.8274   -5.0731   -2.5456 H   0  0  0  0  0  0  0  0  0  0  0  0
    7.1545   -1.7949   -2.3843 H   0  0  0  0  0  0  0  0  0  0  0  0
    6.7240   -5.9507    1.0114 H   0  0  0  0  0  0  0  0  0  0  0  0
    8.2927   -5.9745    0.3640 H   0  0  0  0  0  0  0  0  0  0  0  0
    6.2326   -7.0266   -0.8388 H   0  0  0  0  0  0  0  0  0  0  0  0
    7.6382   -6.4886   -1.6724 H   0  0  0  0  0  0  0  0  0  0  0  0
    4.9535   -4.0526   -0.5402 H   0  0  0  0  0  0  0  0  0  0  0  0
    5.2459   -2.7279   -3.2402 H   0  0  0  0  0  0  0  0  0  0  0  0
    4.5117   -2.0227   -1.8174 H   0  0  0  0  0  0  0  0  0  0  0  0
    3.9847   -5.0921   -4.2023 H   0  0  0  0  0  0  0  0  0  0  0  0
    2.6440   -5.6678   -3.2572 H   0  0  0  0  0  0  0  0  0  0  0  0
    4.7033   -6.9133   -2.7707 H   0  0  0  0  0  0  0  0  0  0  0  0
    4.0438   -6.1393   -1.3397 H   0  0  0  0  0  0  0  0  0  0  0  0
    3.3473   -2.7404   -4.6671 H   0  0  0  0  0  0  0  0  0  0  0  0
    2.4397   -1.8325   -3.4450 H   0  0  0  0  0  0  0  0  0  0  0  0
    1.7578   -3.3008   -4.1490 H   0  0  0  0  0  0  0  0  0  0  0  0
    1.0489   -4.5666   -2.5742 H   0  0  0  0  0  0  0  0  0  0  0  0
    7.6216   -4.6506   -3.2814 H   0  0  0  0  0  0  0  0  0  0  0  0
    6.1019   -4.5212   -4.1421 H   0  0  0  0  0  0  0  0  0  0  0  0
    6.8024   -6.1048   -3.8419 H   0  0  0  0  0  0  0  0  0  0  0  0
    6.0505   -2.6277    1.6140 H   0  0  0  0  0  0  0  0  0  0  0  0
    6.6861   -4.0312    2.5169 H   0  0  0  0  0  0  0  0  0  0  0  0
    5.3844   -4.2299    1.3869 H   0  0  0  0  0  0  0  0  0  0  0  0
    8.1046   -2.4632    2.8650 H   0  0  0  0  0  0  0  0  0  0  0  0
    7.9373   -1.3692    1.4695 H   0  0  0  0  0  0  0  0  0  0  0  0
    9.5023   -1.6522    2.2265 H   0  0  0  0  0  0  0  0  0  0  0  0
   11.9104   -7.0226   -0.6263 H   0  0  0  0  0  0  0  0  0  0  0  0
   13.5871   -7.0125   -1.1445 H   0  0  0  0  0  0  0  0  0  0  0  0
   12.3911   -6.2182   -2.1278 H   0  0  0  0  0  0  0  0  0  0  0  0
  1  2  1  0  0  0  0
  1 35  1  0  0  0  0
  1 36  1  0  0  0  0
  1 37  1  0  0  0  0
  2  3  1  0  0  0  0
  2 11  1  0  0  0  0
  2 34  1  0  0  0  0
  3  4  1  0  0  0  0
  3  8  1  0  0  0  0
  3 38  1  0  0  0  0
  4  5  1  0  0  0  0
  4 39  1  0  0  0  0
  4 40  1  0  0  0  0
  5  6  1  0  0  0  0
  5 41  1  0  0  0  0
  5 42  1  0  0  0  0
  6  7  1  0  0  0  0
  6 18  1  0  0  0  0
  6 33  1  0  0  0  0
  7  8  1  0  0  0  0
  7 14  1  0  0  0  0
  7 43  1  0  0  0  0
  8  9  1  0  0  0  0
  8 13  1  0  0  0  0
  9 10  1  0  0  0  0
  9 44  1  0  0  0  0
  9 45  1  0  0  0  0
 10 11  1  0  0  0  0
 10 46  1  0  0  0  0
 10 47  1  0  0  0  0
 11 12  1  0  0  0  0
 11 48  1  0  0  0  0
 12 49  1  0  0  0  0
 13 50  1  0  0  0  0
 13 51  1  0  0  0  0
 13 52  1  0  0  0  0
 14 15  2  0  0  0  0
 14 16  1  0  0  0  0
 16 17  2  0  0  0  0
 16 53  1  0  0  0  0
 17 18  1  0  0  0  0
 17 22  1  0  0  0  0
 18 19  1  0  0  0  0
 18 32  1  0  0  0  0
 19 20  1  0  0  0  0
 19 54  1  0  0  0  0
 19 55  1  0  0  0  0
 20 21  1  0  0  0  0
 20 56  1  0  0  0  0
 20 57  1  0  0  0  0
 21 22  1  0  0  0  0
 21 26  1  0  0  0  0
 21 31  1  0  0  0  0
 22 23  1  0  0  0  0
 22 58  1  0  0  0  0
 23 24  1  0  0  0  0
 23 59  1  0  0  0  0
 23 60  1  0  0  0  0
 24 25  1  0  0  0  0
 24 27  1  0  0  0  0
 24 28  1  0  0  0  0
 25 26  1  0  0  0  0
 25 61  1  0  0  0  0
 25 62  1  0  0  0  0
 26 63  1  0  0  0  0
 26 64  1  0  0  0  0
 27 65  1  0  0  0  0
 27 66  1  0  0  0  0
 27 67  1  0  0  0  0
 28 29  2  0  0  0  0
 28 30  1  0  0  0  0
 30 68  1  0  0  0  0
 31 69  1  0  0  0  0
 31 70  1  0  0  0  0
 31 71  1  0  0  0  0
 32 72  1  0  0  0  0
 32 73  1  0  0  0  0
 32 74  1  0  0  0  0
 33 75  1  0  0  0  0
 33 76  1  0  0  0  0
 33 77  1  0  0  0  0
 34 78  1  0  0  0  0
 34 79  1  0  0  0  0
 34 80  1  0  0  0  0
M  END
$$$$
