
 OpenBabel02242207293D

165172  0  0  1  0  0  0  0  0999 V2000
    2.5420   -9.1713    5.6477 C   0  0  0  0  0  0  0  0  0  0  0  0
    3.3742   -9.1577    4.4109 C   0  0  0  0  0  0  0  0  0  0  0  0
    3.1163   -8.3649    3.3188 C   0  0  0  0  0  0  0  0  0  0  0  0
    1.9985   -7.3720    3.1778 C   0  0  0  0  0  0  0  0  0  0  0  0
    2.4871   -5.9965    3.6481 C   0  0  0  0  0  0  0  0  0  0  0  0
    1.4636   -4.8126    3.5718 C   0  0  3  0  0  0  0  0  0  0  0  0
    2.2295   -3.6133    4.1314 C   0  0  0  0  0  0  0  0  0  0  0  0
    0.8827   -4.5227    2.1241 C   0  0  3  0  0  0  0  0  0  0  0  0
   -0.1571   -3.3825    2.0121 C   0  0  0  0  0  0  0  0  0  0  0  0
    0.5572   -2.1560    1.4606 C   0  0  0  0  0  0  0  0  0  0  0  0
    1.5999   -2.6693    0.4409 C   0  0  3  0  0  0  0  0  0  0  0  0
    1.7984   -4.1795    0.8796 C   0  0  3  0  0  0  0  0  0  0  0  0
    3.2345   -4.6637    0.8093 C   0  0  3  0  0  0  0  0  0  0  0  0
    3.9685   -4.0209   -0.3551 C   0  0  0  0  0  0  0  0  0  0  0  0
    4.2627   -2.5355   -0.0594 C   0  0  3  0  0  0  0  0  0  0  0  0
    2.9503   -1.7479    0.3384 C   0  0  3  0  0  0  0  0  0  0  0  0
    2.7583   -0.5672   -0.6461 C   0  0  0  0  0  0  0  0  0  0  0  0
    3.9725    0.3458   -0.7120 C   0  0  0  0  0  0  0  0  0  0  0  0
    5.2528   -0.3131   -1.2703 C   0  0  3  0  0  0  0  0  0  0  0  0
    5.2696   -1.8914   -1.1276 C   0  0  3  0  0  0  0  0  0  0  0  0
    6.7083   -2.4067   -0.7732 C   0  0  0  0  0  0  0  0  0  0  0  0
    7.4611   -1.6490    0.3410 C   0  0  0  0  0  0  0  0  0  0  0  0
    7.0616   -0.1732    0.5199 C   0  0  3  0  0  0  0  0  0  0  0  0
    6.5810    0.4350   -0.8306 C   0  0  0  0  0  0  0  0  0  0  0  0
    6.3324    1.9538   -0.7138 C   0  0  0  0  0  0  0  0  0  0  0  0
    7.6832    0.3467   -1.9215 C   0  0  0  0  0  0  0  0  0  0  0  0
    8.1390    0.6102    1.0996 O   0  0  0  0  0  0  0  0  0  0  0  0
    8.0947    0.6979    2.5429 C   0  0  3  0  0  0  0  0  0  0  0  0
    9.2907    1.5322    3.1543 C   0  0  3  0  0  0  0  0  0  0  0  0
    9.0994    3.0261    2.8291 C   0  0  3  0  0  0  0  0  0  0  0  0
    7.7337    3.5351    3.2666 C   0  0  3  0  0  0  0  0  0  0  0  0
    6.6701    2.6415    2.6510 C   0  0  3  0  0  0  0  0  0  0  0  0
    6.8377    1.2521    3.0060 O   0  0  0  0  0  0  0  0  0  0  0  0
    5.2709    3.1430    3.0166 C   0  0  0  0  0  0  0  0  0  0  0  0
    4.2696    2.3389    2.4016 O   0  0  0  0  0  0  0  0  0  0  0  0
    7.6157    3.5453    4.6898 O   0  0  0  0  0  0  0  0  0  0  0  0
    9.2986    3.2650    1.4278 O   0  0  0  0  0  0  0  0  0  0  0  0
   10.6151    1.0764    2.7577 O   0  0  0  0  0  0  0  0  0  0  0  0
   11.7181    1.8634    3.2890 C   0  0  3  0  0  0  0  0  0  0  0  0
   11.8709    1.8002    4.8260 C   0  0  3  0  0  0  0  0  0  0  0  0
   12.1253    0.3407    5.2110 C   0  0  3  0  0  0  0  0  0  0  0  0
   13.3901   -0.1772    4.5116 C   0  0  3  0  0  0  0  0  0  0  0  0
   13.3550    0.1216    2.9970 C   0  0  3  0  0  0  0  0  0  0  0  0
   12.9686    1.4743    2.6960 O   0  0  0  0  0  0  0  0  0  0  0  0
   14.7210   -0.1220    2.3357 C   0  0  0  0  0  0  0  0  0  0  0  0
   14.6588    0.1964    0.9433 O   0  0  0  0  0  0  0  0  0  0  0  0
   14.5355    0.4210    5.1388 O   0  0  0  0  0  0  0  0  0  0  0  0
   12.2827    0.2586    6.6400 O   0  0  0  0  0  0  0  0  0  0  0  0
   10.7410    2.3195    5.5379 O   0  0  0  0  0  0  0  0  0  0  0  0
    4.9374   -2.4395   -2.5519 C   0  0  0  0  0  0  0  0  0  0  0  0
    3.2479   -1.0945    1.7240 C   0  0  0  0  0  0  0  0  0  0  0  0
    3.2560   -6.0758    0.6171 O   0  0  0  0  0  0  0  0  0  0  0  0
    0.8638   -2.6974   -0.9401 C   0  0  0  0  0  0  0  0  0  0  0  0
    0.4974   -5.2964    4.5383 O   0  0  0  0  0  0  0  0  0  0  0  0
   -0.7195   -4.6549    4.8821 C   0  0  3  0  0  0  0  0  0  0  0  0
   -1.4910   -5.5515    5.8887 C   0  0  3  0  0  0  0  0  0  0  0  0
   -0.7087   -5.6271    7.1996 C   0  0  3  0  0  0  0  0  0  0  0  0
   -0.4622   -4.2256    7.7470 C   0  0  3  0  0  0  0  0  0  0  0  0
    0.1486   -3.3007    6.6773 C   0  0  3  0  0  0  0  0  0  0  0  0
   -0.5666   -3.3461    5.4267 O   0  0  0  0  0  0  0  0  0  0  0  0
    0.1787   -1.8562    7.2064 C   0  0  0  0  0  0  0  0  0  0  0  0
    0.7263   -0.8979    6.2785 O   0  0  0  0  0  0  0  0  0  0  0  0
    0.7210    0.4121    6.8770 C   0  0  3  0  0  0  0  0  0  0  0  0
    1.3015    1.5237    5.9735 C   0  0  3  0  0  0  0  0  0  0  0  0
    0.3910    1.7722    4.7666 C   0  0  3  0  0  0  0  0  0  0  0  0
   -1.0698    1.9573    5.1925 C   0  0  3  0  0  0  0  0  0  0  0  0
   -1.5057    0.8567    6.1516 C   0  0  0  0  0  0  0  0  0  0  0  0
   -0.6079    0.8030    7.2718 O   0  0  0  0  0  0  0  0  0  0  0  0
   -1.1868    3.2433    5.8369 O   0  0  0  0  0  0  0  0  0  0  0  0
    0.8430    2.9643    4.0962 O   0  0  0  0  0  0  0  0  0  0  0  0
    2.6419    1.2716    5.5369 O   0  0  0  0  0  0  0  0  0  0  0  0
   -1.7165   -3.7054    8.2209 O   0  0  0  0  0  0  0  0  0  0  0  0
   -1.4702   -6.3686    8.1736 O   0  0  0  0  0  0  0  0  0  0  0  0
   -1.7150   -6.8979    5.4330 O   0  0  0  0  0  0  0  0  0  0  0  0
    4.5833  -10.0495    4.4360 C   0  0  0  0  0  0  0  0  0  0  0  0
    1.7829   -8.3890    5.6807 H   0  0  0  0  0  0  0  0  0  0  0  0
    3.1776   -9.0374    6.5316 H   0  0  0  0  0  0  0  0  0  0  0  0
    2.0319  -10.1391    5.7415 H   0  0  0  0  0  0  0  0  0  0  0  0
    3.8070   -8.4038    2.4801 H   0  0  0  0  0  0  0  0  0  0  0  0
    1.1104   -7.6887    3.7271 H   0  0  0  0  0  0  0  0  0  0  0  0
    1.7004   -7.3453    2.1226 H   0  0  0  0  0  0  0  0  0  0  0  0
    2.7544   -6.1207    4.7107 H   0  0  0  0  0  0  0  0  0  0  0  0
    3.4362   -5.7515    3.1696 H   0  0  0  0  0  0  0  0  0  0  0  0
    3.1243   -3.4260    3.5420 H   0  0  0  0  0  0  0  0  0  0  0  0
    2.6013   -3.8062    5.1411 H   0  0  0  0  0  0  0  0  0  0  0  0
    1.6220   -2.7082    4.1736 H   0  0  0  0  0  0  0  0  0  0  0  0
    0.3300   -5.4415    1.8770 H   0  0  0  0  0  0  0  0  0  0  0  0
   -0.6378   -3.0947    2.9413 H   0  0  0  0  0  0  0  0  0  0  0  0
   -0.9544   -3.6869    1.3223 H   0  0  0  0  0  0  0  0  0  0  0  0
    0.9909   -1.6338    2.3116 H   0  0  0  0  0  0  0  0  0  0  0  0
   -0.1616   -1.4575    1.0163 H   0  0  0  0  0  0  0  0  0  0  0  0
    1.3000   -4.7727    0.0932 H   0  0  0  0  0  0  0  0  0  0  0  0
    3.7878   -4.4358    1.7184 H   0  0  0  0  0  0  0  0  0  0  0  0
    3.3843   -4.1461   -1.2737 H   0  0  0  0  0  0  0  0  0  0  0  0
    4.8940   -4.5810   -0.5263 H   0  0  0  0  0  0  0  0  0  0  0  0
    4.8584   -2.5780    0.8648 H   0  0  0  0  0  0  0  0  0  0  0  0
    1.8935    0.0332   -0.3335 H   0  0  0  0  0  0  0  0  0  0  0  0
    2.5437   -0.9151   -1.6602 H   0  0  0  0  0  0  0  0  0  0  0  0
    4.1480    0.7703    0.2768 H   0  0  0  0  0  0  0  0  0  0  0  0
    3.7143    1.2043   -1.3465 H   0  0  0  0  0  0  0  0  0  0  0  0
    5.1859   -0.0925   -2.3465 H   0  0  0  0  0  0  0  0  0  0  0  0
    7.3273   -2.4116   -1.6766 H   0  0  0  0  0  0  0  0  0  0  0  0
    6.6868   -3.4685   -0.5000 H   0  0  0  0  0  0  0  0  0  0  0  0
    8.5391   -1.7317    0.1502 H   0  0  0  0  0  0  0  0  0  0  0  0
    7.3066   -2.1726    1.2937 H   0  0  0  0  0  0  0  0  0  0  0  0
    6.2130   -0.1498    1.2072 H   0  0  0  0  0  0  0  0  0  0  0  0
    5.6407    2.1920    0.0918 H   0  0  0  0  0  0  0  0  0  0  0  0
    5.8886    2.3571   -1.6297 H   0  0  0  0  0  0  0  0  0  0  0  0
    7.2669    2.4995   -0.5412 H   0  0  0  0  0  0  0  0  0  0  0  0
    7.8063   -0.6405   -2.3603 H   0  0  0  0  0  0  0  0  0  0  0  0
    8.6568    0.6556   -1.5239 H   0  0  0  0  0  0  0  0  0  0  0  0
    7.4501    1.0124   -2.7614 H   0  0  0  0  0  0  0  0  0  0  0  0
    8.1661   -0.3254    2.9333 H   0  0  0  0  0  0  0  0  0  0  0  0
    9.1906    1.3734    4.2311 H   0  0  0  0  0  0  0  0  0  0  0  0
    9.8339    3.6401    3.3525 H   0  0  0  0  0  0  0  0  0  0  0  0
    7.5878    4.5618    2.9102 H   0  0  0  0  0  0  0  0  0  0  0  0
    6.7753    2.7198    1.5776 H   0  0  0  0  0  0  0  0  0  0  0  0
    5.1384    4.1708    2.6587 H   0  0  0  0  0  0  0  0  0  0  0  0
    5.0933    3.1237    4.0944 H   0  0  0  0  0  0  0  0  0  0  0  0
    4.4921    1.4228    2.6488 H   0  0  0  0  0  0  0  0  0  0  0  0
    8.1484    4.2902    5.0221 H   0  0  0  0  0  0  0  0  0  0  0  0
    9.4218    2.3927    0.9935 H   0  0  0  0  0  0  0  0  0  0  0  0
   11.6015    2.9029    2.9781 H   0  0  0  0  0  0  0  0  0  0  0  0
   12.7217    2.4190    5.1360 H   0  0  0  0  0  0  0  0  0  0  0  0
   11.2574   -0.2734    4.9452 H   0  0  0  0  0  0  0  0  0  0  0  0
   13.4929   -1.2552    4.6743 H   0  0  0  0  0  0  0  0  0  0  0  0
   12.6143   -0.5237    2.5132 H   0  0  0  0  0  0  0  0  0  0  0  0
   15.0119   -1.1723    2.4282 H   0  0  0  0  0  0  0  0  0  0  0  0
   15.5116    0.5004    2.7681 H   0  0  0  0  0  0  0  0  0  0  0  0
   14.3314    1.1169    0.9081 H   0  0  0  0  0  0  0  0  0  0  0  0
   14.3768    0.3742    6.1036 H   0  0  0  0  0  0  0  0  0  0  0  0
   12.0810   -0.6603    6.8969 H   0  0  0  0  0  0  0  0  0  0  0  0
   10.8843    2.0696    6.4724 H   0  0  0  0  0  0  0  0  0  0  0  0
    3.9024   -2.2228   -2.8346 H   0  0  0  0  0  0  0  0  0  0  0  0
    5.0949   -3.5189   -2.6346 H   0  0  0  0  0  0  0  0  0  0  0  0
    5.5850   -1.9848   -3.3117 H   0  0  0  0  0  0  0  0  0  0  0  0
    3.2105   -1.8214    2.5224 H   0  0  0  0  0  0  0  0  0  0  0  0
    2.5501   -0.2833    1.9596 H   0  0  0  0  0  0  0  0  0  0  0  0
    4.2505   -0.6695    1.7853 H   0  0  0  0  0  0  0  0  0  0  0  0
    2.8595   -6.2725   -0.2498 H   0  0  0  0  0  0  0  0  0  0  0  0
   -0.0107   -3.3592   -0.9224 H   0  0  0  0  0  0  0  0  0  0  0  0
    1.5187   -3.0458   -1.7434 H   0  0  0  0  0  0  0  0  0  0  0  0
    0.4795   -1.7093   -1.2168 H   0  0  0  0  0  0  0  0  0  0  0  0
   -1.3534   -4.6137    3.9929 H   0  0  0  0  0  0  0  0  0  0  0  0
   -2.4824   -5.1216    6.0796 H   0  0  0  0  0  0  0  0  0  0  0  0
    0.2364   -6.1635    7.0566 H   0  0  0  0  0  0  0  0  0  0  0  0
    0.1953   -4.2740    8.6225 H   0  0  0  0  0  0  0  0  0  0  0  0
    1.1721   -3.6245    6.4993 H   0  0  0  0  0  0  0  0  0  0  0  0
    0.7728   -1.8292    8.1275 H   0  0  0  0  0  0  0  0  0  0  0  0
   -0.8470   -1.5555    7.4358 H   0  0  0  0  0  0  0  0  0  0  0  0
    1.3429    0.3619    7.7793 H   0  0  0  0  0  0  0  0  0  0  0  0
    1.3481    2.4490    6.5641 H   0  0  0  0  0  0  0  0  0  0  0  0
    0.4886    0.9479    4.0517 H   0  0  0  0  0  0  0  0  0  0  0  0
   -1.7203    1.9924    4.3130 H   0  0  0  0  0  0  0  0  0  0  0  0
   -1.5619   -0.1154    5.6503 H   0  0  0  0  0  0  0  0  0  0  0  0
   -2.4958    1.0818    6.5604 H   0  0  0  0  0  0  0  0  0  0  0  0
   -1.1687    3.0850    6.8015 H   0  0  0  0  0  0  0  0  0  0  0  0
    0.3129    3.6956    4.4791 H   0  0  0  0  0  0  0  0  0  0  0  0
    2.8107    1.9422    4.8417 H   0  0  0  0  0  0  0  0  0  0  0  0
   -2.1133   -4.4443    8.7286 H   0  0  0  0  0  0  0  0  0  0  0  0
   -1.7583   -7.1739    7.6964 H   0  0  0  0  0  0  0  0  0  0  0  0
   -1.9673   -6.8508    4.4944 H   0  0  0  0  0  0  0  0  0  0  0  0
    4.3244  -11.0305    4.8409 H   0  0  0  0  0  0  0  0  0  0  0  0
    5.3557   -9.6063    5.0732 H   0  0  0  0  0  0  0  0  0  0  0  0
    5.0125  -10.2042    3.4399 H   0  0  0  0  0  0  0  0  0  0  0  0
  1  2  1  0  0  0  0
  1 76  1  0  0  0  0
  1 77  1  0  0  0  0
  1 78  1  0  0  0  0
  2  3  2  0  0  0  0
  2 75  1  0  0  0  0
  3  4  1  0  0  0  0
  3 79  1  0  0  0  0
  4  5  1  0  0  0  0
  4 80  1  0  0  0  0
  4 81  1  0  0  0  0
  5  6  1  0  0  0  0
  5 82  1  0  0  0  0
  5 83  1  0  0  0  0
  6  7  1  0  0  0  0
  6  8  1  0  0  0  0
  6 54  1  0  0  0  0
  7 84  1  0  0  0  0
  7 85  1  0  0  0  0
  7 86  1  0  0  0  0
  8  9  1  0  0  0  0
  8 12  1  0  0  0  0
  8 87  1  0  0  0  0
  9 10  1  0  0  0  0
  9 88  1  0  0  0  0
  9 89  1  0  0  0  0
 10 11  1  0  0  0  0
 10 90  1  0  0  0  0
 10 91  1  0  0  0  0
 11 12  1  0  0  0  0
 11 16  1  0  0  0  0
 11 53  1  0  0  0  0
 12 13  1  0  0  0  0
 12 92  1  0  0  0  0
 13 14  1  0  0  0  0
 13 52  1  0  0  0  0
 13 93  1  0  0  0  0
 14 15  1  0  0  0  0
 14 94  1  0  0  0  0
 14 95  1  0  0  0  0
 15 16  1  0  0  0  0
 15 20  1  0  0  0  0
 15 96  1  0  0  0  0
 16 17  1  0  0  0  0
 16 51  1  0  0  0  0
 17 18  1  0  0  0  0
 17 97  1  0  0  0  0
 17 98  1  0  0  0  0
 18 19  1  0  0  0  0
 18 99  1  0  0  0  0
 18100  1  0  0  0  0
 19 20  1  0  0  0  0
 19 24  1  0  0  0  0
 19101  1  0  0  0  0
 20 21  1  0  0  0  0
 20 50  1  0  0  0  0
 21 22  1  0  0  0  0
 21102  1  0  0  0  0
 21103  1  0  0  0  0
 22 23  1  0  0  0  0
 22104  1  0  0  0  0
 22105  1  0  0  0  0
 23 24  1  0  0  0  0
 23 27  1  0  0  0  0
 23106  1  0  0  0  0
 24 25  1  0  0  0  0
 24 26  1  0  0  0  0
 25107  1  0  0  0  0
 25108  1  0  0  0  0
 25109  1  0  0  0  0
 26110  1  0  0  0  0
 26111  1  0  0  0  0
 26112  1  0  0  0  0
 27 28  1  0  0  0  0
 28 29  1  0  0  0  0
 28 33  1  0  0  0  0
 28113  1  0  0  0  0
 29 30  1  0  0  0  0
 29 38  1  0  0  0  0
 29114  1  0  0  0  0
 30 31  1  0  0  0  0
 30 37  1  0  0  0  0
 30115  1  0  0  0  0
 31 32  1  0  0  0  0
 31 36  1  0  0  0  0
 31116  1  0  0  0  0
 32 33  1  0  0  0  0
 32 34  1  0  0  0  0
 32117  1  0  0  0  0
 34 35  1  0  0  0  0
 34118  1  0  0  0  0
 34119  1  0  0  0  0
 35120  1  0  0  0  0
 36121  1  0  0  0  0
 37122  1  0  0  0  0
 38 39  1  0  0  0  0
 39 40  1  0  0  0  0
 39 44  1  0  0  0  0
 39123  1  0  0  0  0
 40 41  1  0  0  0  0
 40 49  1  0  0  0  0
 40124  1  0  0  0  0
 41 42  1  0  0  0  0
 41 48  1  0  0  0  0
 41125  1  0  0  0  0
 42 43  1  0  0  0  0
 42 47  1  0  0  0  0
 42126  1  0  0  0  0
 43 44  1  0  0  0  0
 43 45  1  0  0  0  0
 43127  1  0  0  0  0
 45 46  1  0  0  0  0
 45128  1  0  0  0  0
 45129  1  0  0  0  0
 46130  1  0  0  0  0
 47131  1  0  0  0  0
 48132  1  0  0  0  0
 49133  1  0  0  0  0
 50134  1  0  0  0  0
 50135  1  0  0  0  0
 50136  1  0  0  0  0
 51137  1  0  0  0  0
 51138  1  0  0  0  0
 51139  1  0  0  0  0
 52140  1  0  0  0  0
 53141  1  0  0  0  0
 53142  1  0  0  0  0
 53143  1  0  0  0  0
 54 55  1  0  0  0  0
 55 56  1  0  0  0  0
 55 60  1  0  0  0  0
 55144  1  0  0  0  0
 56 57  1  0  0  0  0
 56 74  1  0  0  0  0
 56145  1  0  0  0  0
 57 58  1  0  0  0  0
 57 73  1  0  0  0  0
 57146  1  0  0  0  0
 58 59  1  0  0  0  0
 58 72  1  0  0  0  0
 58147  1  0  0  0  0
 59 60  1  0  0  0  0
 59 61  1  0  0  0  0
 59148  1  0  0  0  0
 61 62  1  0  0  0  0
 61149  1  0  0  0  0
 61150  1  0  0  0  0
 62 63  1  0  0  0  0
 63 64  1  0  0  0  0
 63 68  1  0  0  0  0
 63151  1  0  0  0  0
 64 65  1  0  0  0  0
 64 71  1  0  0  0  0
 64152  1  0  0  0  0
 65 66  1  0  0  0  0
 65 70  1  0  0  0  0
 65153  1  0  0  0  0
 66 67  1  0  0  0  0
 66 69  1  0  0  0  0
 66154  1  0  0  0  0
 67 68  1  0  0  0  0
 67155  1  0  0  0  0
 67156  1  0  0  0  0
 69157  1  0  0  0  0
 70158  1  0  0  0  0
 71159  1  0  0  0  0
 72160  1  0  0  0  0
 73161  1  0  0  0  0
 74162  1  0  0  0  0
 75163  1  0  0  0  0
 75164  1  0  0  0  0
 75165  1  0  0  0  0
M  END
$$$$
