
 OpenBabel02242207443D

124129  0  0  1  0  0  0  0  0999 V2000
    3.2029   -2.4611   -0.3788 C   0  0  0  0  0  0  0  0  0  0  0  0
    4.5009   -2.6004    0.3083 C   0  0  0  0  0  0  0  0  0  0  0  0
    5.7009   -2.9114   -0.3009 C   0  0  0  0  0  0  0  0  0  0  0  0
    6.0342   -3.0978   -1.7497 C   0  0  0  0  0  0  0  0  0  0  0  0
    5.2561   -2.2234   -2.7354 C   0  0  0  0  0  0  0  0  0  0  0  0
    5.4765   -2.3017   -4.2600 C   0  0  0  0  0  0  0  0  0  0  0  0
    4.4298   -2.6620   -4.9701 C   0  0  0  0  0  0  0  0  0  0  0  0
    6.8857   -2.1340   -4.8333 C   0  0  3  0  0  0  0  0  0  0  0  0
    7.0755   -2.9458   -6.1080 C   0  0  0  0  0  0  0  0  0  0  0  0
    6.7880   -1.9822   -7.2724 C   0  0  0  0  0  0  0  0  0  0  0  0
    7.1001   -0.5140   -6.7728 C   0  0  3  0  0  0  0  0  0  0  0  0
    7.5275   -0.7748   -5.2916 C   0  0  3  0  0  0  0  0  0  0  0  0
    7.5699    0.4362   -4.3598 C   0  0  3  0  0  0  0  0  0  0  0  0
    6.8238    1.6927   -4.8165 C   0  0  0  0  0  0  0  0  0  0  0  0
    5.5187    1.3658   -5.5683 C   0  0  3  0  0  0  0  0  0  0  0  0
    5.9289    0.6585   -6.9273 C   0  0  3  0  0  0  0  0  0  0  0  0
    6.4334    1.8425   -7.8741 C   0  0  0  0  0  0  0  0  0  0  0  0
    5.7330    3.2317   -7.8004 C   0  0  0  0  0  0  0  0  0  0  0  0
    4.3678    3.1164   -7.2005 C   0  0  3  0  0  0  0  0  0  0  0  0
    4.4595    2.6325   -5.7489 C   0  0  3  0  0  0  0  0  0  0  0  0
    2.9953    2.2213   -5.3524 C   0  0  0  0  0  0  0  0  0  0  0  0
    1.8469    2.1713   -6.4504 C   0  0  0  0  0  0  0  0  0  0  0  0
    2.0071    2.9427   -7.8278 C   0  0  3  0  0  0  0  0  0  0  0  0
    3.1289    4.0328   -7.5779 C   0  0  0  0  0  0  0  0  0  0  0  0
    3.3642    4.9605   -8.7546 C   0  0  0  0  0  0  0  0  0  0  0  0
    2.6117    5.0875   -6.5758 C   0  0  0  0  0  0  0  0  0  0  0  0
    2.3493    1.9551   -8.8748 O   0  0  0  0  0  0  0  0  0  0  0  0
    1.8669    2.1466  -10.2299 C   0  0  3  0  0  0  0  0  0  0  0  0
    2.6413    3.2471  -11.0622 C   0  0  3  0  0  0  0  0  0  0  0  0
    1.9984    3.3386  -12.4262 C   0  0  3  0  0  0  0  0  0  0  0  0
    2.2479    2.0266  -13.1543 C   0  0  3  0  0  0  0  0  0  0  0  0
    2.5527    0.8450  -12.1802 C   0  0  3  0  0  0  0  0  0  0  0  0
    1.7646    0.8869  -10.9727 O   0  0  0  0  0  0  0  0  0  0  0  0
    2.4926   -0.4846  -12.9540 C   0  0  0  0  0  0  0  0  0  0  0  0
    2.8410   -1.5990  -12.1356 O   0  0  0  0  0  0  0  0  0  0  0  0
    1.1595    1.7875  -14.0510 O   0  0  0  0  0  0  0  0  0  0  0  0
    0.5865    3.6117  -12.3269 O   0  0  0  0  0  0  0  0  0  0  0  0
    4.0873    3.0304  -11.1406 O   0  0  0  0  0  0  0  0  0  0  0  0
    4.9123    4.0943  -11.6961 C   0  0  3  0  0  0  0  0  0  0  0  0
    6.4286    3.8850  -11.4192 C   0  0  3  0  0  0  0  0  0  0  0  0
    6.7691    2.4444  -11.8023 C   0  0  3  0  0  0  0  0  0  0  0  0
    6.1116    2.0845  -13.1493 C   0  0  3  0  0  0  0  0  0  0  0  0
    5.6620    3.3443  -13.9191 C   0  0  3  0  0  0  0  0  0  0  0  0
    4.7557    4.1592  -13.1256 O   0  0  0  0  0  0  0  0  0  0  0  0
    6.8490    4.1464  -14.5116 C   0  0  0  0  0  0  0  0  0  0  0  0
    6.3788    5.3368  -15.1405 O   0  0  0  0  0  0  0  0  0  0  0  0
    6.9017    1.1801  -13.9085 O   0  0  0  0  0  0  0  0  0  0  0  0
    8.1919    2.2923  -11.7797 O   0  0  0  0  0  0  0  0  0  0  0  0
    6.9896    4.2024  -10.1550 O   0  0  0  0  0  0  0  0  0  0  0  0
    4.9308    3.8185   -4.8536 C   0  0  0  0  0  0  0  0  0  0  0  0
    4.6381    0.0118   -7.5012 C   0  0  0  0  0  0  0  0  0  0  0  0
    8.9489    0.8274   -4.1922 O   0  0  0  0  0  0  0  0  0  0  0  0
    8.3890   -0.1531   -7.5760 C   0  0  0  0  0  0  0  0  0  0  0  0
    4.4004   -2.4165    1.8493 C   0  0  0  0  0  0  0  0  0  0  0  0
    3.2165   -1.8034   -1.2478 H   0  0  0  0  0  0  0  0  0  0  0  0
    2.4388   -1.9653    0.2846 H   0  0  0  0  0  0  0  0  0  0  0  0
    2.7820   -3.4398   -0.6452 H   0  0  0  0  0  0  0  0  0  0  0  0
    6.5565   -3.0259    0.3542 H   0  0  0  0  0  0  0  0  0  0  0  0
    5.9263   -4.1713   -1.9984 H   0  0  0  0  0  0  0  0  0  0  0  0
    7.1162   -2.8786   -1.8571 H   0  0  0  0  0  0  0  0  0  0  0  0
    5.2754   -1.1842   -2.4209 H   0  0  0  0  0  0  0  0  0  0  0  0
    4.2246   -2.5870   -2.6226 H   0  0  0  0  0  0  0  0  0  0  0  0
    3.4177   -2.8590   -4.5191 H   0  0  0  0  0  0  0  0  0  0  0  0
    4.4361   -2.8279   -6.0195 H   0  0  0  0  0  0  0  0  0  0  0  0
    7.5667   -2.5593   -4.0729 H   0  0  0  0  0  0  0  0  0  0  0  0
    6.4805   -3.8548   -6.1613 H   0  0  0  0  0  0  0  0  0  0  0  0
    8.1313   -3.2764   -6.1743 H   0  0  0  0  0  0  0  0  0  0  0  0
    5.7853   -2.1600   -7.6509 H   0  0  0  0  0  0  0  0  0  0  0  0
    7.4198   -2.2750   -8.1199 H   0  0  0  0  0  0  0  0  0  0  0  0
    8.5898   -1.0760   -5.3562 H   0  0  0  0  0  0  0  0  0  0  0  0
    7.2275    0.1509   -3.3616 H   0  0  0  0  0  0  0  0  0  0  0  0
    7.4780    2.3382   -5.4200 H   0  0  0  0  0  0  0  0  0  0  0  0
    6.6393    2.2707   -3.9052 H   0  0  0  0  0  0  0  0  0  0  0  0
    5.0056    0.6276   -4.9417 H   0  0  0  0  0  0  0  0  0  0  0  0
    6.3913    1.4804   -8.9068 H   0  0  0  0  0  0  0  0  0  0  0  0
    7.4826    2.0827   -7.6916 H   0  0  0  0  0  0  0  0  0  0  0  0
    6.3627    3.9703   -7.2971 H   0  0  0  0  0  0  0  0  0  0  0  0
    5.5979    3.5636   -8.8140 H   0  0  0  0  0  0  0  0  0  0  0  0
    4.1060    2.2433   -7.7758 H   0  0  0  0  0  0  0  0  0  0  0  0
    2.6528    2.9076   -4.5656 H   0  0  0  0  0  0  0  0  0  0  0  0
    3.0070    1.2511   -4.8445 H   0  0  0  0  0  0  0  0  0  0  0  0
    0.9618    2.5938   -5.9522 H   0  0  0  0  0  0  0  0  0  0  0  0
    1.5987    1.1204   -6.6381 H   0  0  0  0  0  0  0  0  0  0  0  0
    1.0389    3.3852   -8.0904 H   0  0  0  0  0  0  0  0  0  0  0  0
    3.9856    4.4761   -9.4726 H   0  0  0  0  0  0  0  0  0  0  0  0
    3.8943    5.8888   -8.5176 H   0  0  0  0  0  0  0  0  0  0  0  0
    2.4002    5.2841   -9.1717 H   0  0  0  0  0  0  0  0  0  0  0  0
    3.3863    5.8425   -6.3905 H   0  0  0  0  0  0  0  0  0  0  0  0
    2.2517    4.7038   -5.6272 H   0  0  0  0  0  0  0  0  0  0  0  0
    1.7609    5.6331   -7.0120 H   0  0  0  0  0  0  0  0  0  0  0  0
    0.8158    2.4376  -10.1223 H   0  0  0  0  0  0  0  0  0  0  0  0
    2.4151    4.1952  -10.6185 H   0  0  0  0  0  0  0  0  0  0  0  0
    2.4054    4.1777  -12.9946 H   0  0  0  0  0  0  0  0  0  0  0  0
    3.1289    2.1488  -13.7887 H   0  0  0  0  0  0  0  0  0  0  0  0
    3.5804    0.8945  -11.8159 H   0  0  0  0  0  0  0  0  0  0  0  0
    3.2156   -0.4446  -13.7830 H   0  0  0  0  0  0  0  0  0  0  0  0
    1.5049   -0.6762  -13.3800 H   0  0  0  0  0  0  0  0  0  0  0  0
    3.7697   -1.8255  -12.3045 H   0  0  0  0  0  0  0  0  0  0  0  0
    0.4340    2.3707  -13.7371 H   0  0  0  0  0  0  0  0  0  0  0  0
    0.4878    4.5664  -12.1373 H   0  0  0  0  0  0  0  0  0  0  0  0
    4.5896    5.0535  -11.2840 H   0  0  0  0  0  0  0  0  0  0  0  0
    6.9631    4.5993  -12.0381 H   0  0  0  0  0  0  0  0  0  0  0  0
    6.3914    1.7576  -11.0372 H   0  0  0  0  0  0  0  0  0  0  0  0
    5.2005    1.5386  -12.9036 H   0  0  0  0  0  0  0  0  0  0  0  0
    5.0637    3.0405  -14.7853 H   0  0  0  0  0  0  0  0  0  0  0  0
    7.3710    3.5452  -15.2615 H   0  0  0  0  0  0  0  0  0  0  0  0
    7.6087    4.4362  -13.7840 H   0  0  0  0  0  0  0  0  0  0  0  0
    6.9723    6.0614  -14.8735 H   0  0  0  0  0  0  0  0  0  0  0  0
    6.2946    0.6855  -14.4914 H   0  0  0  0  0  0  0  0  0  0  0  0
    8.3531    1.3272  -11.8270 H   0  0  0  0  0  0  0  0  0  0  0  0
    7.8659    3.7606  -10.1486 H   0  0  0  0  0  0  0  0  0  0  0  0
    5.9271    4.1818   -5.1338 H   0  0  0  0  0  0  0  0  0  0  0  0
    4.9460    3.5345   -3.7986 H   0  0  0  0  0  0  0  0  0  0  0  0
    4.2903    4.6960   -4.8998 H   0  0  0  0  0  0  0  0  0  0  0  0
    4.4642   -0.9970   -7.1497 H   0  0  0  0  0  0  0  0  0  0  0  0
    4.6184    0.0217   -8.5945 H   0  0  0  0  0  0  0  0  0  0  0  0
    3.7263    0.4793   -7.1418 H   0  0  0  0  0  0  0  0  0  0  0  0
    9.3050    1.0452   -5.0725 H   0  0  0  0  0  0  0  0  0  0  0  0
    9.1383   -0.9532   -7.5083 H   0  0  0  0  0  0  0  0  0  0  0  0
    8.8840    0.7454   -7.2024 H   0  0  0  0  0  0  0  0  0  0  0  0
    8.1663   -0.0349   -8.6429 H   0  0  0  0  0  0  0  0  0  0  0  0
    3.5189   -2.9103    2.2061 H   0  0  0  0  0  0  0  0  0  0  0  0
    4.3073   -1.3265    2.0209 H   0  0  0  0  0  0  0  0  0  0  0  0
    5.2733   -2.7816    2.3522 H   0  0  0  0  0  0  0  0  0  0  0  0
  1  2  1  0  0  0  0
  1 55  1  0  0  0  0
  1 56  1  0  0  0  0
  1 57  1  0  0  0  0
  2  3  2  0  0  0  0
  2 54  1  0  0  0  0
  3  4  1  0  0  0  0
  3 58  1  0  0  0  0
  4  5  1  0  0  0  0
  4 59  1  0  0  0  0
  4 60  1  0  0  0  0
  5  6  1  0  0  0  0
  5 61  1  0  0  0  0
  5 62  1  0  0  0  0
  6  7  2  0  0  0  0
  6  8  1  0  0  0  0
  7 63  1  0  0  0  0
  7 64  1  0  0  0  0
  8  9  1  0  0  0  0
  8 12  1  0  0  0  0
  8 65  1  0  0  0  0
  9 10  1  0  0  0  0
  9 66  1  0  0  0  0
  9 67  1  0  0  0  0
 10 11  1  0  0  0  0
 10 68  1  0  0  0  0
 10 69  1  0  0  0  0
 11 12  1  0  0  0  0
 11 16  1  0  0  0  0
 11 53  1  0  0  0  0
 12 13  1  0  0  0  0
 12 70  1  0  0  0  0
 13 14  1  0  0  0  0
 13 52  1  0  0  0  0
 13 71  1  0  0  0  0
 14 15  1  0  0  0  0
 14 72  1  0  0  0  0
 14 73  1  0  0  0  0
 15 16  1  0  0  0  0
 15 20  1  0  0  0  0
 15 74  1  0  0  0  0
 16 17  1  0  0  0  0
 16 51  1  0  0  0  0
 17 18  1  0  0  0  0
 17 75  1  0  0  0  0
 17 76  1  0  0  0  0
 18 19  1  0  0  0  0
 18 77  1  0  0  0  0
 18 78  1  0  0  0  0
 19 20  1  0  0  0  0
 19 24  1  0  0  0  0
 19 79  1  0  0  0  0
 20 21  1  0  0  0  0
 20 50  1  0  0  0  0
 21 22  1  0  0  0  0
 21 80  1  0  0  0  0
 21 81  1  0  0  0  0
 22 23  1  0  0  0  0
 22 82  1  0  0  0  0
 22 83  1  0  0  0  0
 23 24  1  0  0  0  0
 23 27  1  0  0  0  0
 23 84  1  0  0  0  0
 24 25  1  0  0  0  0
 24 26  1  0  0  0  0
 25 85  1  0  0  0  0
 25 86  1  0  0  0  0
 25 87  1  0  0  0  0
 26 88  1  0  0  0  0
 26 89  1  0  0  0  0
 26 90  1  0  0  0  0
 27 28  1  0  0  0  0
 28 29  1  0  0  0  0
 28 33  1  0  0  0  0
 28 91  1  0  0  0  0
 29 30  1  0  0  0  0
 29 38  1  0  0  0  0
 29 92  1  0  0  0  0
 30 31  1  0  0  0  0
 30 37  1  0  0  0  0
 30 93  1  0  0  0  0
 31 32  1  0  0  0  0
 31 36  1  0  0  0  0
 31 94  1  0  0  0  0
 32 33  1  0  0  0  0
 32 34  1  0  0  0  0
 32 95  1  0  0  0  0
 34 35  1  0  0  0  0
 34 96  1  0  0  0  0
 34 97  1  0  0  0  0
 35 98  1  0  0  0  0
 36 99  1  0  0  0  0
 37100  1  0  0  0  0
 38 39  1  0  0  0  0
 39 40  1  0  0  0  0
 39 44  1  0  0  0  0
 39101  1  0  0  0  0
 40 41  1  0  0  0  0
 40 49  1  0  0  0  0
 40102  1  0  0  0  0
 41 42  1  0  0  0  0
 41 48  1  0  0  0  0
 41103  1  0  0  0  0
 42 43  1  0  0  0  0
 42 47  1  0  0  0  0
 42104  1  0  0  0  0
 43 44  1  0  0  0  0
 43 45  1  0  0  0  0
 43105  1  0  0  0  0
 45 46  1  0  0  0  0
 45106  1  0  0  0  0
 45107  1  0  0  0  0
 46108  1  0  0  0  0
 47109  1  0  0  0  0
 48110  1  0  0  0  0
 49111  1  0  0  0  0
 50112  1  0  0  0  0
 50113  1  0  0  0  0
 50114  1  0  0  0  0
 51115  1  0  0  0  0
 51116  1  0  0  0  0
 51117  1  0  0  0  0
 52118  1  0  0  0  0
 53119  1  0  0  0  0
 53120  1  0  0  0  0
 53121  1  0  0  0  0
 54122  1  0  0  0  0
 54123  1  0  0  0  0
 54124  1  0  0  0  0
M  END
$$$$
