
 OpenBabel02242207473D

123128  0  0  1  0  0  0  0  0999 V2000
    4.4333    4.4790    5.1796 C   0  0  0  0  0  0  0  0  0  0  0  0
    5.3643    3.3450    4.8733 C   0  0  0  0  0  0  0  0  0  0  0  0
    5.7590    2.9496    3.6449 C   0  0  0  0  0  0  0  0  0  0  0  0
    5.2375    3.5482    2.3722 C   0  0  0  0  0  0  0  0  0  0  0  0
    6.8726    1.9479    3.5542 C   0  0  0  0  0  0  0  0  0  0  0  0
    7.5659    1.6086    4.5023 O   0  0  0  0  0  0  0  0  0  0  0  0
    7.1025    1.6303    2.2474 O   0  0  0  0  0  0  0  0  0  0  0  0
    8.4637    1.2640    1.9242 C   0  0  3  0  0  0  0  0  0  0  0  0
    8.6664   -0.2606    1.9815 C   0  0  3  0  0  0  0  0  0  0  0  0
    8.1094   -1.1116    0.7687 C   0  0  3  0  0  0  0  0  0  0  0  0
    7.3390   -0.2107   -0.2444 C   0  0  3  0  0  0  0  0  0  0  0  0
    8.1036    1.0995   -0.6100 C   0  0  0  0  0  0  0  0  0  0  0  0
    8.8127    1.8599    0.5449 C   0  0  0  0  0  0  0  0  0  0  0  0
   10.3449    1.8294    0.3483 C   0  0  0  0  0  0  0  0  0  0  0  0
    8.4008    3.3513    0.4930 C   0  0  0  0  0  0  0  0  0  0  0  0
    6.9064   -0.9047   -1.5583 C   0  0  0  0  0  0  0  0  0  0  0  0
    5.8664   -0.4023   -2.2536 C   0  0  0  0  0  0  0  0  0  0  0  0
    5.5003   -0.8708   -3.6280 C   0  0  0  0  0  0  0  0  0  0  0  0
    5.6138   -2.4004   -3.8565 C   0  0  3  0  0  0  0  0  0  0  0  0
    4.1612   -3.0886   -3.9146 C   0  0  3  0  0  0  0  0  0  0  0  0
    3.5216   -2.7993   -5.2905 C   0  0  0  0  0  0  0  0  0  0  0  0
    2.1304   -3.4091   -5.4888 C   0  0  0  0  0  0  0  0  0  0  0  0
    1.8354   -4.7390   -4.7537 C   0  0  3  0  0  0  0  0  0  0  0  0
    3.1622   -5.5315   -4.4287 C   0  0  3  0  0  0  0  0  0  0  0  0
    4.3296   -4.6312   -3.7970 C   0  0  3  0  0  0  0  0  0  0  0  0
    4.8414   -4.9688   -2.3874 C   0  0  0  0  0  0  0  0  0  0  0  0
    5.9085   -3.9770   -1.8468 C   0  0  0  0  0  0  0  0  0  0  0  0
    6.6938   -3.1267   -2.9081 C   0  0  3  0  0  0  0  0  0  0  0  0
    7.7162   -2.0418   -2.2023 C   0  0  3  0  0  0  0  0  0  0  0  0
    8.6727   -2.7300   -1.1769 C   0  0  0  0  0  0  0  0  0  0  0  0
    9.2225   -1.8454   -0.0451 C   0  0  3  0  0  0  0  0  0  0  0  0
   10.0235   -2.6657    0.8250 O   0  0  0  0  0  0  0  0  0  0  0  0
    8.6575   -1.4037   -3.2820 C   0  0  0  0  0  0  0  0  0  0  0  0
    7.5461   -4.1367   -3.7524 C   0  0  0  0  0  0  0  0  0  0  0  0
    3.7005   -6.0490   -5.8178 C   0  0  0  0  0  0  0  0  0  0  0  0
    2.8228   -6.8155   -3.6240 C   0  0  0  0  0  0  0  0  0  0  0  0
    3.9403   -7.6997   -3.5538 O   0  0  0  0  0  0  0  0  0  0  0  0
    0.9560   -4.6128   -3.6120 O   0  0  0  0  0  0  0  0  0  0  0  0
   -0.3342   -3.9924   -3.8346 C   0  0  3  0  0  0  0  0  0  0  0  0
   -1.3430   -4.7802   -4.7106 C   0  0  3  0  0  0  0  0  0  0  0  0
   -1.7557   -6.0639   -3.9839 C   0  0  3  0  0  0  0  0  0  0  0  0
   -2.3535   -5.7130   -2.6216 C   0  0  3  0  0  0  0  0  0  0  0  0
   -1.3697   -4.8439   -1.8320 C   0  0  3  0  0  0  0  0  0  0  0  0
   -0.9724   -3.6801   -2.5741 O   0  0  0  0  0  0  0  0  0  0  0  0
   -2.0284   -4.4522   -0.5046 C   0  0  0  0  0  0  0  0  0  0  0  0
   -1.9166   -5.0996    0.5208 O   0  0  0  0  0  0  0  0  0  0  0  0
   -2.7879   -3.3302   -0.5843 O   0  0  0  0  0  0  0  0  0  0  0  0
   -3.5732   -4.9827   -2.8764 O   0  0  0  0  0  0  0  0  0  0  0  0
   -2.7574   -6.7440   -4.7613 O   0  0  0  0  0  0  0  0  0  0  0  0
   -0.8808   -5.1055   -6.0245 O   0  0  0  0  0  0  0  0  0  0  0  0
    3.2378   -2.5041   -2.8099 C   0  0  0  0  0  0  0  0  0  0  0  0
    7.1281   -2.1567    1.4110 C   0  0  0  0  0  0  0  0  0  0  0  0
    7.7939   -3.0634    2.3260 O   0  0  0  0  0  0  0  0  0  0  0  0
    7.6033   -2.8840    3.6629 C   0  0  0  0  0  0  0  0  0  0  0  0
    6.8932   -2.0279    4.1709 O   0  0  0  0  0  0  0  0  0  0  0  0
    8.3473   -3.9188    4.4515 C   0  0  0  0  0  0  0  0  0  0  0  0
   10.0453   -0.5329    2.2496 O   0  0  0  0  0  0  0  0  0  0  0  0
    4.8807    5.1166    5.9496 H   0  0  0  0  0  0  0  0  0  0  0  0
    3.4762    4.1067    5.5544 H   0  0  0  0  0  0  0  0  0  0  0  0
    4.2439    5.1231    4.3166 H   0  0  0  0  0  0  0  0  0  0  0  0
    5.7910    2.8600    5.7527 H   0  0  0  0  0  0  0  0  0  0  0  0
    4.2344    3.9627    2.4886 H   0  0  0  0  0  0  0  0  0  0  0  0
    5.1614    2.8074    1.5721 H   0  0  0  0  0  0  0  0  0  0  0  0
    5.9073    4.3525    2.0504 H   0  0  0  0  0  0  0  0  0  0  0  0
    9.1305    1.7333    2.6628 H   0  0  0  0  0  0  0  0  0  0  0  0
    8.1461   -0.5486    2.8906 H   0  0  0  0  0  0  0  0  0  0  0  0
    6.4112    0.1028    0.2586 H   0  0  0  0  0  0  0  0  0  0  0  0
    7.3748    1.7721   -1.0851 H   0  0  0  0  0  0  0  0  0  0  0  0
    8.8366    0.8976   -1.3986 H   0  0  0  0  0  0  0  0  0  0  0  0
   10.7319    0.8140    0.2542 H   0  0  0  0  0  0  0  0  0  0  0  0
   10.8546    2.2980    1.2022 H   0  0  0  0  0  0  0  0  0  0  0  0
   10.6438    2.3748   -0.5503 H   0  0  0  0  0  0  0  0  0  0  0  0
    7.3149    3.4671    0.4376 H   0  0  0  0  0  0  0  0  0  0  0  0
    8.8168    3.8506   -0.3891 H   0  0  0  0  0  0  0  0  0  0  0  0
    8.7517    3.8920    1.3798 H   0  0  0  0  0  0  0  0  0  0  0  0
    5.3095    0.4511   -1.8734 H   0  0  0  0  0  0  0  0  0  0  0  0
    6.1401   -0.3463   -4.3492 H   0  0  0  0  0  0  0  0  0  0  0  0
    4.5040   -0.4952   -3.8775 H   0  0  0  0  0  0  0  0  0  0  0  0
    6.0096   -2.4864   -4.8793 H   0  0  0  0  0  0  0  0  0  0  0  0
    4.1851   -3.1623   -6.0845 H   0  0  0  0  0  0  0  0  0  0  0  0
    3.4478   -1.7192   -5.4687 H   0  0  0  0  0  0  0  0  0  0  0  0
    2.0034   -3.5865   -6.5652 H   0  0  0  0  0  0  0  0  0  0  0  0
    1.4128   -2.6299   -5.2424 H   0  0  0  0  0  0  0  0  0  0  0  0
    1.2874   -5.3781   -5.4491 H   0  0  0  0  0  0  0  0  0  0  0  0
    5.1816   -4.8648   -4.4462 H   0  0  0  0  0  0  0  0  0  0  0  0
    5.2939   -5.9671   -2.3955 H   0  0  0  0  0  0  0  0  0  0  0  0
    4.0138   -5.0151   -1.6700 H   0  0  0  0  0  0  0  0  0  0  0  0
    6.5966   -4.5803   -1.2464 H   0  0  0  0  0  0  0  0  0  0  0  0
    5.4243   -3.3036   -1.1344 H   0  0  0  0  0  0  0  0  0  0  0  0
    9.5412   -3.1447   -1.7100 H   0  0  0  0  0  0  0  0  0  0  0  0
    8.2247   -3.6103   -0.7150 H   0  0  0  0  0  0  0  0  0  0  0  0
    9.9050   -1.1146   -0.4847 H   0  0  0  0  0  0  0  0  0  0  0  0
   10.4473   -3.3533    0.2852 H   0  0  0  0  0  0  0  0  0  0  0  0
    8.1227   -0.8793   -4.0759 H   0  0  0  0  0  0  0  0  0  0  0  0
    9.2815   -2.1526   -3.7814 H   0  0  0  0  0  0  0  0  0  0  0  0
    9.3499   -0.6811   -2.8381 H   0  0  0  0  0  0  0  0  0  0  0  0
    7.1495   -5.1558   -3.7294 H   0  0  0  0  0  0  0  0  0  0  0  0
    8.5699   -4.2331   -3.3817 H   0  0  0  0  0  0  0  0  0  0  0  0
    7.6166   -3.8398   -4.8041 H   0  0  0  0  0  0  0  0  0  0  0  0
    4.0140   -5.2354   -6.4765 H   0  0  0  0  0  0  0  0  0  0  0  0
    2.9321   -6.6172   -6.3527 H   0  0  0  0  0  0  0  0  0  0  0  0
    4.5696   -6.7057   -5.6998 H   0  0  0  0  0  0  0  0  0  0  0  0
    2.0176   -7.3657   -4.1271 H   0  0  0  0  0  0  0  0  0  0  0  0
    2.4922   -6.5947   -2.6057 H   0  0  0  0  0  0  0  0  0  0  0  0
    3.6188   -8.5551   -3.2202 H   0  0  0  0  0  0  0  0  0  0  0  0
   -0.1873   -3.0172   -4.2916 H   0  0  0  0  0  0  0  0  0  0  0  0
   -2.2363   -4.1539   -4.8481 H   0  0  0  0  0  0  0  0  0  0  0  0
   -0.9051   -6.7455   -3.8768 H   0  0  0  0  0  0  0  0  0  0  0  0
   -2.6373   -6.6129   -2.0653 H   0  0  0  0  0  0  0  0  0  0  0  0
   -0.4643   -5.4086   -1.5815 H   0  0  0  0  0  0  0  0  0  0  0  0
   -2.8279   -3.0204   -1.5139 H   0  0  0  0  0  0  0  0  0  0  0  0
   -4.1018   -5.5704   -3.4602 H   0  0  0  0  0  0  0  0  0  0  0  0
   -2.3469   -6.8973   -5.6352 H   0  0  0  0  0  0  0  0  0  0  0  0
   -1.4040   -4.5757   -6.6538 H   0  0  0  0  0  0  0  0  0  0  0  0
    2.7913   -1.5534   -3.1224 H   0  0  0  0  0  0  0  0  0  0  0  0
    3.7657   -2.3051   -1.8761 H   0  0  0  0  0  0  0  0  0  0  0  0
    2.4154   -3.1665   -2.5497 H   0  0  0  0  0  0  0  0  0  0  0  0
    6.6745   -2.7921    0.6489 H   0  0  0  0  0  0  0  0  0  0  0  0
    6.2904   -1.6500    1.9045 H   0  0  0  0  0  0  0  0  0  0  0  0
    8.3793   -3.6155    5.5031 H   0  0  0  0  0  0  0  0  0  0  0  0
    9.3780   -4.0137    4.0998 H   0  0  0  0  0  0  0  0  0  0  0  0
    7.8228   -4.8734    4.3732 H   0  0  0  0  0  0  0  0  0  0  0  0
   10.1692   -1.4993    2.1256 H   0  0  0  0  0  0  0  0  0  0  0  0
  1  2  1  0  0  0  0
  1 58  1  0  0  0  0
  1 59  1  0  0  0  0
  1 60  1  0  0  0  0
  2  3  2  3  0  0  0
  2 61  1  0  0  0  0
  3  4  1  0  0  0  0
  3  5  1  0  0  0  0
  4 62  1  0  0  0  0
  4 63  1  0  0  0  0
  4 64  1  0  0  0  0
  5  6  2  0  0  0  0
  5  7  1  0  0  0  0
  7  8  1  0  0  0  0
  8  9  1  0  0  0  0
  8 13  1  0  0  0  0
  8 65  1  0  0  0  0
  9 10  1  0  0  0  0
  9 57  1  0  0  0  0
  9 66  1  0  0  0  0
 10 11  1  0  0  0  0
 10 31  1  0  0  0  0
 10 52  1  0  0  0  0
 11 12  1  0  0  0  0
 11 16  1  0  0  0  0
 11 67  1  0  0  0  0
 12 13  1  0  0  0  0
 12 68  1  0  0  0  0
 12 69  1  0  0  0  0
 13 14  1  0  0  0  0
 13 15  1  0  0  0  0
 14 70  1  0  0  0  0
 14 71  1  0  0  0  0
 14 72  1  0  0  0  0
 15 73  1  0  0  0  0
 15 74  1  0  0  0  0
 15 75  1  0  0  0  0
 16 17  2  0  0  0  0
 16 29  1  0  0  0  0
 17 18  1  0  0  0  0
 17 76  1  0  0  0  0
 18 19  1  0  0  0  0
 18 77  1  0  0  0  0
 18 78  1  0  0  0  0
 19 20  1  0  0  0  0
 19 28  1  0  0  0  0
 19 79  1  0  0  0  0
 20 21  1  0  0  0  0
 20 25  1  0  0  0  0
 20 51  1  0  0  0  0
 21 22  1  0  0  0  0
 21 80  1  0  0  0  0
 21 81  1  0  0  0  0
 22 23  1  0  0  0  0
 22 82  1  0  0  0  0
 22 83  1  0  0  0  0
 23 24  1  0  0  0  0
 23 38  1  0  0  0  0
 23 84  1  0  0  0  0
 24 25  1  0  0  0  0
 24 35  1  0  0  0  0
 24 36  1  0  0  0  0
 25 26  1  0  0  0  0
 25 85  1  0  0  0  0
 26 27  1  0  0  0  0
 26 86  1  0  0  0  0
 26 87  1  0  0  0  0
 27 28  1  0  0  0  0
 27 88  1  0  0  0  0
 27 89  1  0  0  0  0
 28 29  1  0  0  0  0
 28 34  1  0  0  0  0
 29 30  1  0  0  0  0
 29 33  1  0  0  0  0
 30 31  1  0  0  0  0
 30 90  1  0  0  0  0
 30 91  1  0  0  0  0
 31 32  1  0  0  0  0
 31 92  1  0  0  0  0
 32 93  1  0  0  0  0
 33 94  1  0  0  0  0
 33 95  1  0  0  0  0
 33 96  1  0  0  0  0
 34 97  1  0  0  0  0
 34 98  1  0  0  0  0
 34 99  1  0  0  0  0
 35100  1  0  0  0  0
 35101  1  0  0  0  0
 35102  1  0  0  0  0
 36 37  1  0  0  0  0
 36103  1  0  0  0  0
 36104  1  0  0  0  0
 37105  1  0  0  0  0
 38 39  1  0  0  0  0
 39 40  1  0  0  0  0
 39 44  1  0  0  0  0
 39106  1  0  0  0  0
 40 41  1  0  0  0  0
 40 50  1  0  0  0  0
 40107  1  0  0  0  0
 41 42  1  0  0  0  0
 41 49  1  0  0  0  0
 41108  1  0  0  0  0
 42 43  1  0  0  0  0
 42 48  1  0  0  0  0
 42109  1  0  0  0  0
 43 44  1  0  0  0  0
 43 45  1  0  0  0  0
 43110  1  0  0  0  0
 45 46  2  0  0  0  0
 45 47  1  0  0  0  0
 47111  1  0  0  0  0
 48112  1  0  0  0  0
 49113  1  0  0  0  0
 50114  1  0  0  0  0
 51115  1  0  0  0  0
 51116  1  0  0  0  0
 51117  1  0  0  0  0
 52 53  1  0  0  0  0
 52118  1  0  0  0  0
 52119  1  0  0  0  0
 53 54  1  0  0  0  0
 54 55  2  0  0  0  0
 54 56  1  0  0  0  0
 56120  1  0  0  0  0
 56121  1  0  0  0  0
 56122  1  0  0  0  0
 57123  1  0  0  0  0
M  END
$$$$
