
 OpenBabel02242207583D

144151  0  0  1  0  0  0  0  0999 V2000
  -11.7334   -7.0346    3.3230 C   0  0  0  0  0  0  0  0  0  0  0  0
  -10.2002   -6.8953    3.4578 C   0  0  3  0  0  0  0  0  0  0  0  0
   -9.6034   -7.7908    4.5481 C   0  0  3  0  0  0  0  0  0  0  0  0
   -9.5249   -9.2394    4.0844 C   0  0  3  0  0  0  0  0  0  0  0  0
   -8.8349   -9.3457    2.7153 C   0  0  3  0  0  0  0  0  0  0  0  0
   -8.4721   -7.9698    2.0696 C   0  0  3  0  0  0  0  0  0  0  0  0
   -9.5676   -7.0513    2.1726 O   0  0  0  0  0  0  0  0  0  0  0  0
   -7.1456   -7.4449    2.4190 O   0  0  0  0  0  0  0  0  0  0  0  0
   -6.8274   -6.1460    1.8184 C   0  0  3  0  0  0  0  0  0  0  0  0
   -5.4331   -5.4771    2.1703 C   0  0  3  0  0  0  0  0  0  0  0  0
   -4.3422   -5.7848    1.2716 O   0  0  0  0  0  0  0  0  0  0  0  0
   -4.5796   -5.4092   -0.1193 C   0  0  3  0  0  0  0  0  0  0  0  0
   -5.7602   -6.3019   -0.5727 C   0  0  3  0  0  0  0  0  0  0  0  0
   -7.0219   -6.0335    0.2853 C   0  0  3  0  0  0  0  0  0  0  0  0
   -7.5108   -4.7060    0.0225 O   0  0  0  0  0  0  0  0  0  0  0  0
   -6.0343   -6.1475   -1.9739 O   0  0  0  0  0  0  0  0  0  0  0  0
   -4.7572   -3.9603   -0.3210 O   0  0  0  0  0  0  0  0  0  0  0  0
   -4.8045   -3.5583   -1.7304 C   0  0  0  0  0  0  0  0  0  0  0  0
   -4.7196   -2.0135   -2.1179 C   0  0  3  0  0  0  0  0  0  0  0  0
   -3.3638   -1.3004   -1.8850 C   0  0  3  0  0  0  0  0  0  0  0  0
   -2.7960   -0.5424   -3.0942 C   0  0  3  0  0  0  0  0  0  0  0  0
   -3.8962    0.1576   -3.8549 C   0  0  3  0  0  0  0  0  0  0  0  0
   -4.7530   -0.9666   -4.4176 C   0  0  3  0  0  0  0  0  0  0  0  0
   -5.2919   -1.8670   -3.4482 O   0  0  0  0  0  0  0  0  0  0  0  0
   -5.8257   -0.3990   -5.2012 O   0  0  0  0  0  0  0  0  0  0  0  0
   -5.5074   -0.0517   -6.4485 C   0  0  0  0  0  0  0  0  0  0  0  0
   -4.3302    0.2147   -6.8324 O   0  0  0  0  0  0  0  0  0  0  0  0
   -6.7532   -0.0829   -7.3602 C   0  0  3  0  0  0  0  0  0  0  0  0
   -7.6053   -1.2517   -6.8451 C   0  0  0  0  0  0  0  0  0  0  0  0
   -8.4671   -1.6712   -8.0104 C   0  0  0  0  0  0  0  0  0  0  0  0
   -7.5902   -1.4906   -9.2763 C   0  0  3  0  0  0  0  0  0  0  0  0
   -6.4129   -0.5292   -8.8224 C   0  0  3  0  0  0  0  0  0  0  0  0
   -5.7545    0.6229   -9.6461 C   0  0  3  0  0  0  0  0  0  0  0  0
   -5.2947    0.2148  -11.0377 C   0  0  0  0  0  0  0  0  0  0  0  0
   -4.3181    1.2126  -11.6495 C   0  0  3  0  0  0  0  0  0  0  0  0
   -4.9827    2.6051  -11.7542 C   0  0  3  0  0  0  0  0  0  0  0  0
   -5.3866    3.1434  -10.3305 C   0  0  3  0  0  0  0  0  0  0  0  0
   -6.4064    2.0500   -9.5982 C   0  0  3  0  0  0  0  0  0  0  0  0
   -6.6843    2.3853   -8.0980 C   0  0  0  0  0  0  0  0  0  0  0  0
   -7.4570    1.2825   -7.3344 C   0  0  0  0  0  0  0  0  0  0  0  0
   -7.7970    2.0511  -10.2911 C   0  0  0  0  0  0  0  0  0  0  0  0
   -6.0898    4.5092  -10.5269 C   0  0  0  0  0  0  0  0  0  0  0  0
   -5.3312    5.5643  -11.3270 C   0  0  0  0  0  0  0  0  0  0  0  0
   -4.4095    5.0955  -12.4643 C   0  0  3  0  0  0  0  0  0  0  0  0
   -4.2612    3.5804  -12.7520 C   0  0  3  0  0  0  0  0  0  0  0  0
   -4.7703    3.4226  -14.2262 C   0  0  3  0  0  0  0  0  0  0  0  0
   -4.6118    4.7198  -14.8432 O   0  0  0  0  0  0  0  0  0  0  0  0
   -4.5539    5.7704  -13.8607 C   0  0  0  0  0  0  0  0  0  0  0  0
   -3.3112    6.6035  -14.2278 C   0  0  0  0  0  0  0  0  0  0  0  0
   -5.7757    6.6710  -14.0655 C   0  0  0  0  0  0  0  0  0  0  0  0
   -6.2086    2.9643  -14.5526 C   0  0  0  0  0  0  0  0  0  0  0  0
   -6.6370    1.5481  -14.3677 C   0  0  0  0  0  0  0  0  0  0  0  0
   -7.8212    1.2363  -14.0647 O   0  0  0  0  0  0  0  0  0  0  0  0
   -5.7482    0.5908  -14.6497 O   0  0  0  0  0  0  0  0  0  0  0  0
   -2.7118    3.3221  -12.8069 C   0  0  0  0  0  0  0  0  0  0  0  0
   -4.1163    3.3932   -9.4756 C   0  0  0  0  0  0  0  0  0  0  0  0
   -3.9475    0.7160  -12.9412 O   0  0  0  0  0  0  0  0  0  0  0  0
   -8.4334   -1.3453  -10.5419 C   0  0  0  0  0  0  0  0  0  0  0  0
   -9.7097   -0.9089  -10.5635 C   0  0  0  0  0  0  0  0  0  0  0  0
   -7.8927   -1.9323  -11.8272 C   0  0  0  0  0  0  0  0  0  0  0  0
   -4.6160    1.0225   -2.9596 O   0  0  0  0  0  0  0  0  0  0  0  0
   -1.8294    0.4159   -2.6374 O   0  0  0  0  0  0  0  0  0  0  0  0
   -2.3538   -2.2012   -1.4343 O   0  0  0  0  0  0  0  0  0  0  0  0
   -5.0046   -5.6317    3.6447 C   0  0  0  0  0  0  0  0  0  0  0  0
   -5.8866   -4.9036    4.5038 O   0  0  0  0  0  0  0  0  0  0  0  0
   -7.7342  -10.2613    2.7984 O   0  0  0  0  0  0  0  0  0  0  0  0
   -8.8275  -10.0010    5.0866 O   0  0  0  0  0  0  0  0  0  0  0  0
  -10.3293   -7.6994    5.7732 O   0  0  0  0  0  0  0  0  0  0  0  0
  -12.2446   -6.8009    4.2670 H   0  0  0  0  0  0  0  0  0  0  0  0
  -12.0437   -8.0410    3.0195 H   0  0  0  0  0  0  0  0  0  0  0  0
  -12.1302   -6.3500    2.5638 H   0  0  0  0  0  0  0  0  0  0  0  0
  -10.0271   -5.8560    3.7585 H   0  0  0  0  0  0  0  0  0  0  0  0
   -8.5891   -7.4378    4.7682 H   0  0  0  0  0  0  0  0  0  0  0  0
  -10.5293   -9.6829    4.0290 H   0  0  0  0  0  0  0  0  0  0  0  0
   -9.5753   -9.8088    2.0441 H   0  0  0  0  0  0  0  0  0  0  0  0
   -8.3799   -8.2248    1.0118 H   0  0  0  0  0  0  0  0  0  0  0  0
   -7.5578   -5.4865    2.2989 H   0  0  0  0  0  0  0  0  0  0  0  0
   -5.5876   -4.4006    2.0385 H   0  0  0  0  0  0  0  0  0  0  0  0
   -3.6763   -5.6989   -0.6791 H   0  0  0  0  0  0  0  0  0  0  0  0
   -5.4580   -7.3520   -0.4442 H   0  0  0  0  0  0  0  0  0  0  0  0
   -7.8119   -6.6940   -0.0696 H   0  0  0  0  0  0  0  0  0  0  0  0
   -6.7503   -4.0913    0.0960 H   0  0  0  0  0  0  0  0  0  0  0  0
   -6.8708   -6.6188   -2.1670 H   0  0  0  0  0  0  0  0  0  0  0  0
   -5.7880   -3.8664   -2.0946 H   0  0  0  0  0  0  0  0  0  0  0  0
   -4.0582   -4.1189   -2.3121 H   0  0  0  0  0  0  0  0  0  0  0  0
   -5.4380   -1.4887   -1.4703 H   0  0  0  0  0  0  0  0  0  0  0  0
   -3.5036   -0.5740   -1.0709 H   0  0  0  0  0  0  0  0  0  0  0  0
   -2.2508   -1.2308   -3.7534 H   0  0  0  0  0  0  0  0  0  0  0  0
   -3.4856    0.8118   -4.6346 H   0  0  0  0  0  0  0  0  0  0  0  0
   -4.1567   -1.5921   -5.1099 H   0  0  0  0  0  0  0  0  0  0  0  0
   -8.2188   -0.9736   -5.9811 H   0  0  0  0  0  0  0  0  0  0  0  0
   -6.9827   -2.1033   -6.5500 H   0  0  0  0  0  0  0  0  0  0  0  0
   -9.3535   -1.0372   -7.9915 H   0  0  0  0  0  0  0  0  0  0  0  0
   -8.8061   -2.7077   -7.8931 H   0  0  0  0  0  0  0  0  0  0  0  0
   -7.1021   -2.4746   -9.3970 H   0  0  0  0  0  0  0  0  0  0  0  0
   -5.5703   -1.2406   -8.7159 H   0  0  0  0  0  0  0  0  0  0  0  0
   -4.8042    0.7608   -9.1179 H   0  0  0  0  0  0  0  0  0  0  0  0
   -6.1476    0.1630  -11.7081 H   0  0  0  0  0  0  0  0  0  0  0  0
   -4.8246   -0.7754  -11.0192 H   0  0  0  0  0  0  0  0  0  0  0  0
   -3.3979    1.2661  -11.0561 H   0  0  0  0  0  0  0  0  0  0  0  0
   -5.9507    2.4337  -12.2153 H   0  0  0  0  0  0  0  0  0  0  0  0
   -7.2572    3.3183   -8.0232 H   0  0  0  0  0  0  0  0  0  0  0  0
   -5.7448    2.5631   -7.5668 H   0  0  0  0  0  0  0  0  0  0  0  0
   -8.4722    1.1961   -7.7339 H   0  0  0  0  0  0  0  0  0  0  0  0
   -7.5820    1.6097   -6.2946 H   0  0  0  0  0  0  0  0  0  0  0  0
   -7.7545    1.8359  -11.3592 H   0  0  0  0  0  0  0  0  0  0  0  0
   -8.3112    3.0099  -10.1609 H   0  0  0  0  0  0  0  0  0  0  0  0
   -8.4694    1.3197   -9.8480 H   0  0  0  0  0  0  0  0  0  0  0  0
   -6.3275    4.9418   -9.5448 H   0  0  0  0  0  0  0  0  0  0  0  0
   -7.0467    4.3796  -11.0392 H   0  0  0  0  0  0  0  0  0  0  0  0
   -6.0611    6.3073  -11.6584 H   0  0  0  0  0  0  0  0  0  0  0  0
   -4.7070    6.1271  -10.6165 H   0  0  0  0  0  0  0  0  0  0  0  0
   -3.4326    5.4361  -12.0863 H   0  0  0  0  0  0  0  0  0  0  0  0
   -4.1001    2.7626  -14.7864 H   0  0  0  0  0  0  0  0  0  0  0  0
   -2.4048    5.9923  -14.2557 H   0  0  0  0  0  0  0  0  0  0  0  0
   -3.1532    7.4259  -13.5235 H   0  0  0  0  0  0  0  0  0  0  0  0
   -3.4079    7.0232  -15.2367 H   0  0  0  0  0  0  0  0  0  0  0  0
   -6.7079    6.1529  -13.8212 H   0  0  0  0  0  0  0  0  0  0  0  0
   -5.8640    6.9723  -15.1167 H   0  0  0  0  0  0  0  0  0  0  0  0
   -5.7059    7.5863  -13.4659 H   0  0  0  0  0  0  0  0  0  0  0  0
   -6.3776    3.1557  -15.6242 H   0  0  0  0  0  0  0  0  0  0  0  0
   -6.9215    3.6244  -14.0309 H   0  0  0  0  0  0  0  0  0  0  0  0
   -4.8099    0.8475  -14.4035 H   0  0  0  0  0  0  0  0  0  0  0  0
   -2.4449    2.3688  -13.2676 H   0  0  0  0  0  0  0  0  0  0  0  0
   -2.2607    3.3520  -11.8122 H   0  0  0  0  0  0  0  0  0  0  0  0
   -2.1952    4.0671  -13.4185 H   0  0  0  0  0  0  0  0  0  0  0  0
   -3.6228    2.4705   -9.1628 H   0  0  0  0  0  0  0  0  0  0  0  0
   -4.3462    3.9629   -8.5692 H   0  0  0  0  0  0  0  0  0  0  0  0
   -3.3697    3.9779  -10.0191 H   0  0  0  0  0  0  0  0  0  0  0  0
   -3.4953   -0.1368  -12.7832 H   0  0  0  0  0  0  0  0  0  0  0  0
  -10.2442   -0.5350   -9.6980 H   0  0  0  0  0  0  0  0  0  0  0  0
  -10.2947   -0.9166  -11.4795 H   0  0  0  0  0  0  0  0  0  0  0  0
   -7.6497   -2.9932  -11.7073 H   0  0  0  0  0  0  0  0  0  0  0  0
   -6.9929   -1.4369  -12.1810 H   0  0  0  0  0  0  0  0  0  0  0  0
   -8.6226   -1.8522  -12.6414 H   0  0  0  0  0  0  0  0  0  0  0  0
   -5.5596    0.7582   -2.9949 H   0  0  0  0  0  0  0  0  0  0  0  0
   -2.3459    1.2111   -2.3816 H   0  0  0  0  0  0  0  0  0  0  0  0
   -1.5433   -1.6582   -1.3613 H   0  0  0  0  0  0  0  0  0  0  0  0
   -4.0015   -5.2139    3.8021 H   0  0  0  0  0  0  0  0  0  0  0  0
   -4.9589   -6.6727    3.9826 H   0  0  0  0  0  0  0  0  0  0  0  0
   -6.7818   -5.2681    4.4019 H   0  0  0  0  0  0  0  0  0  0  0  0
   -7.1127  -10.0350    2.0838 H   0  0  0  0  0  0  0  0  0  0  0  0
   -8.1445  -10.5026    4.5900 H   0  0  0  0  0  0  0  0  0  0  0  0
   -9.8690   -8.3083    6.3903 H   0  0  0  0  0  0  0  0  0  0  0  0
  1  2  1  0  0  0  0
  1 69  1  0  0  0  0
  1 70  1  0  0  0  0
  1 71  1  0  0  0  0
  2  3  1  0  0  0  0
  2  7  1  0  0  0  0
  2 72  1  0  0  0  0
  3  4  1  0  0  0  0
  3 68  1  0  0  0  0
  3 73  1  0  0  0  0
  4  5  1  0  0  0  0
  4 67  1  0  0  0  0
  4 74  1  0  0  0  0
  5  6  1  0  0  0  0
  5 66  1  0  0  0  0
  5 75  1  0  0  0  0
  6  7  1  0  0  0  0
  6  8  1  0  0  0  0
  6 76  1  0  0  0  0
  8  9  1  0  0  0  0
  9 10  1  0  0  0  0
  9 14  1  0  0  0  0
  9 77  1  0  0  0  0
 10 11  1  0  0  0  0
 10 64  1  0  0  0  0
 10 78  1  0  0  0  0
 11 12  1  0  0  0  0
 12 13  1  0  0  0  0
 12 17  1  0  0  0  0
 12 79  1  0  0  0  0
 13 14  1  0  0  0  0
 13 16  1  0  0  0  0
 13 80  1  0  0  0  0
 14 15  1  0  0  0  0
 14 81  1  0  0  0  0
 15 82  1  0  0  0  0
 16 83  1  0  0  0  0
 17 18  1  0  0  0  0
 18 19  1  0  0  0  0
 18 84  1  0  0  0  0
 18 85  1  0  0  0  0
 19 20  1  0  0  0  0
 19 24  1  0  0  0  0
 19 86  1  0  0  0  0
 20 21  1  0  0  0  0
 20 63  1  0  0  0  0
 20 87  1  0  0  0  0
 21 22  1  0  0  0  0
 21 62  1  0  0  0  0
 21 88  1  0  0  0  0
 22 23  1  0  0  0  0
 22 61  1  0  0  0  0
 22 89  1  0  0  0  0
 23 24  1  0  0  0  0
 23 25  1  0  0  0  0
 23 90  1  0  0  0  0
 25 26  1  0  0  0  0
 26 27  2  0  0  0  0
 26 28  1  0  0  0  0
 28 29  1  0  0  0  0
 28 32  1  0  0  0  0
 28 40  1  0  0  0  0
 29 30  1  0  0  0  0
 29 91  1  0  0  0  0
 29 92  1  0  0  0  0
 30 31  1  0  0  0  0
 30 93  1  0  0  0  0
 30 94  1  0  0  0  0
 31 32  1  0  0  0  0
 31 58  1  0  0  0  0
 31 95  1  0  0  0  0
 32 33  1  0  0  0  0
 32 96  1  0  0  0  0
 33 34  1  0  0  0  0
 33 38  1  0  0  0  0
 33 97  1  0  0  0  0
 34 35  1  0  0  0  0
 34 98  1  0  0  0  0
 34 99  1  0  0  0  0
 35 36  1  0  0  0  0
 35 57  1  0  0  0  0
 35100  1  0  0  0  0
 36 37  1  0  0  0  0
 36 45  1  0  0  0  0
 36101  1  0  0  0  0
 37 38  1  0  0  0  0
 37 42  1  0  0  0  0
 37 56  1  0  0  0  0
 38 39  1  0  0  0  0
 38 41  1  0  0  0  0
 39 40  1  0  0  0  0
 39102  1  0  0  0  0
 39103  1  0  0  0  0
 40104  1  0  0  0  0
 40105  1  0  0  0  0
 41106  1  0  0  0  0
 41107  1  0  0  0  0
 41108  1  0  0  0  0
 42 43  1  0  0  0  0
 42109  1  0  0  0  0
 42110  1  0  0  0  0
 43 44  1  0  0  0  0
 43111  1  0  0  0  0
 43112  1  0  0  0  0
 44 45  1  0  0  0  0
 44 48  1  0  0  0  0
 44113  1  0  0  0  0
 45 46  1  0  0  0  0
 45 55  1  0  0  0  0
 46 47  1  0  0  0  0
 46 51  1  0  0  0  0
 46114  1  0  0  0  0
 47 48  1  0  0  0  0
 48 49  1  0  0  0  0
 48 50  1  0  0  0  0
 49115  1  0  0  0  0
 49116  1  0  0  0  0
 49117  1  0  0  0  0
 50118  1  0  0  0  0
 50119  1  0  0  0  0
 50120  1  0  0  0  0
 51 52  1  0  0  0  0
 51121  1  0  0  0  0
 51122  1  0  0  0  0
 52 53  2  0  0  0  0
 52 54  1  0  0  0  0
 54123  1  0  0  0  0
 55124  1  0  0  0  0
 55125  1  0  0  0  0
 55126  1  0  0  0  0
 56127  1  0  0  0  0
 56128  1  0  0  0  0
 56129  1  0  0  0  0
 57130  1  0  0  0  0
 58 59  2  0  0  0  0
 58 60  1  0  0  0  0
 59131  1  0  0  0  0
 59132  1  0  0  0  0
 60133  1  0  0  0  0
 60134  1  0  0  0  0
 60135  1  0  0  0  0
 61136  1  0  0  0  0
 62137  1  0  0  0  0
 63138  1  0  0  0  0
 64 65  1  0  0  0  0
 64139  1  0  0  0  0
 64140  1  0  0  0  0
 65141  1  0  0  0  0
 66142  1  0  0  0  0
 67143  1  0  0  0  0
 68144  1  0  0  0  0
M  END
$$$$
