
 OpenBabel02242208073D

103110  0  0  1  0  0  0  0  0999 V2000
    0.5411    2.1457   -1.5270 C   0  0  0  0  0  0  0  0  0  0  0  0
    1.4841    1.6664   -2.6199 C   0  0  3  0  0  0  0  0  0  0  0  0
    1.0188    0.2813   -3.1134 C   0  0  3  0  0  0  0  0  0  0  0  0
    0.9999   -0.6817   -2.0498 O   0  0  0  0  0  0  0  0  0  0  0  0
    0.5348   -0.2782   -0.8268 C   0  0  0  0  0  0  0  0  0  0  0  0
    0.2895    1.0724   -0.5113 C   0  0  0  0  0  0  0  0  0  0  0  0
   -0.1834    1.3918    0.7674 C   0  0  0  0  0  0  0  0  0  0  0  0
   -0.3355    0.4193    1.7389 C   0  0  0  0  0  0  0  0  0  0  0  0
   -0.0169   -0.8936    1.4313 C   0  0  0  0  0  0  0  0  0  0  0  0
    0.3822   -1.2882    0.1445 C   0  0  0  0  0  0  0  0  0  0  0  0
    0.6580   -2.7541   -0.1779 C   0  0  0  0  0  0  0  0  0  0  0  0
   -0.5446   -3.5866   -0.6103 C   0  0  0  0  0  0  0  0  0  0  0  0
   -1.6487   -3.8715    0.2201 C   0  0  0  0  0  0  0  0  0  0  0  0
   -2.7668   -4.5991   -0.2144 C   0  0  0  0  0  0  0  0  0  0  0  0
   -2.7859   -5.0692   -1.5171 C   0  0  0  0  0  0  0  0  0  0  0  0
   -1.6867   -4.8702   -2.3489 C   0  0  0  0  0  0  0  0  0  0  0  0
   -0.5772   -4.1542   -1.8928 C   0  0  0  0  0  0  0  0  0  0  0  0
    0.5018   -4.0121   -2.7232 O   0  0  0  0  0  0  0  0  0  0  0  0
   -3.8549   -5.6882   -2.0880 O   0  0  0  0  0  0  0  0  0  0  0  0
   -4.8986   -6.1243   -1.2090 C   0  0  3  0  0  0  0  0  0  0  0  0
   -5.1854   -5.1939   -0.0095 C   0  0  3  0  0  0  0  0  0  0  0  0
   -3.8944   -4.8894    0.7322 C   0  0  0  0  0  0  0  0  0  0  0  0
   -6.0378   -5.9125    0.9054 O   0  0  0  0  0  0  0  0  0  0  0  0
   -7.3430   -5.5477    0.9731 C   0  0  0  0  0  0  0  0  0  0  0  0
   -7.8216   -4.4862    0.6508 O   0  0  0  0  0  0  0  0  0  0  0  0
   -8.1083   -6.7161    1.4855 C   0  0  0  0  0  0  0  0  0  0  0  0
   -9.3571   -6.5226    2.0990 C   0  0  0  0  0  0  0  0  0  0  0  0
  -10.0607   -7.6369    2.5564 C   0  0  0  0  0  0  0  0  0  0  0  0
   -9.5410   -8.9182    2.3881 C   0  0  0  0  0  0  0  0  0  0  0  0
   -8.3183   -9.1022    1.7648 C   0  0  0  0  0  0  0  0  0  0  0  0
   -7.5989   -8.0131    1.3115 C   0  0  0  0  0  0  0  0  0  0  0  0
   -7.8019  -10.3519    1.5965 O   0  0  0  0  0  0  0  0  0  0  0  0
  -10.2214  -10.0165    2.8366 O   0  0  0  0  0  0  0  0  0  0  0  0
  -11.2688   -7.5289    3.1887 O   0  0  0  0  0  0  0  0  0  0  0  0
   -6.1290   -6.2937   -2.0962 C   0  0  0  0  0  0  0  0  0  0  0  0
   -6.6247   -5.2064   -2.8470 C   0  0  0  0  0  0  0  0  0  0  0  0
   -7.7376   -5.3731   -3.6670 C   0  0  0  0  0  0  0  0  0  0  0  0
   -8.3619   -6.6097   -3.7555 C   0  0  0  0  0  0  0  0  0  0  0  0
   -7.8856   -7.6844   -3.0197 C   0  0  0  0  0  0  0  0  0  0  0  0
   -6.7777   -7.5390   -2.1922 C   0  0  0  0  0  0  0  0  0  0  0  0
   -8.5030   -8.8986   -3.1072 O   0  0  0  0  0  0  0  0  0  0  0  0
   -9.4516   -6.7840   -4.5657 O   0  0  0  0  0  0  0  0  0  0  0  0
   -8.2531   -4.3448   -4.4060 O   0  0  0  0  0  0  0  0  0  0  0  0
   -1.7370   -3.4704    1.5207 O   0  0  0  0  0  0  0  0  0  0  0  0
   -0.1057   -1.8335    2.4240 O   0  0  0  0  0  0  0  0  0  0  0  0
   -0.4959    2.6620    1.1584 O   0  0  0  0  0  0  0  0  0  0  0  0
    1.9558   -0.2615   -4.1941 C   0  0  0  0  0  0  0  0  0  0  0  0
    3.1520   -0.9250   -3.8476 C   0  0  0  0  0  0  0  0  0  0  0  0
    4.0116   -1.3859   -4.8417 C   0  0  0  0  0  0  0  0  0  0  0  0
    3.7102   -1.1748   -6.1798 C   0  0  0  0  0  0  0  0  0  0  0  0
    2.5382   -0.5239   -6.5343 C   0  0  0  0  0  0  0  0  0  0  0  0
    1.6544   -0.0764   -5.5576 C   0  0  0  0  0  0  0  0  0  0  0  0
    2.2445   -0.3190   -7.8511 O   0  0  0  0  0  0  0  0  0  0  0  0
    4.5580   -1.6111   -7.1622 O   0  0  0  0  0  0  0  0  0  0  0  0
    5.1663   -2.0561   -4.5471 O   0  0  0  0  0  0  0  0  0  0  0  0
    1.4551    2.6162   -3.6973 O   0  0  0  0  0  0  0  0  0  0  0  0
    2.6301    3.2074   -4.0149 C   0  0  0  0  0  0  0  0  0  0  0  0
    3.5994    3.3573   -3.2705 O   0  0  0  0  0  0  0  0  0  0  0  0
    2.6313    3.5321   -5.4608 C   0  0  0  0  0  0  0  0  0  0  0  0
    3.8309    3.9081   -6.0928 C   0  0  0  0  0  0  0  0  0  0  0  0
    3.8296    4.1293   -7.4678 C   0  0  0  0  0  0  0  0  0  0  0  0
    2.6582    3.9727   -8.2042 C   0  0  0  0  0  0  0  0  0  0  0  0
    1.4794    3.6043   -7.5763 C   0  0  0  0  0  0  0  0  0  0  0  0
    1.4526    3.3902   -6.2123 C   0  0  0  0  0  0  0  0  0  0  0  0
    0.3274    3.4488   -8.2874 O   0  0  0  0  0  0  0  0  0  0  0  0
    2.6450    4.1867   -9.5549 O   0  0  0  0  0  0  0  0  0  0  0  0
    4.9549    4.5050   -8.1484 O   0  0  0  0  0  0  0  0  0  0  0  0
   -0.4212    2.4756   -1.9396 H   0  0  0  0  0  0  0  0  0  0  0  0
    0.9985    3.0232   -1.0528 H   0  0  0  0  0  0  0  0  0  0  0  0
    2.4932    1.5706   -2.1999 H   0  0  0  0  0  0  0  0  0  0  0  0
    0.0043    0.3233   -3.5362 H   0  0  0  0  0  0  0  0  0  0  0  0
   -0.6890    0.6991    2.7259 H   0  0  0  0  0  0  0  0  0  0  0  0
    1.1451   -3.2366    0.6793 H   0  0  0  0  0  0  0  0  0  0  0  0
    1.4400   -2.7905   -0.9479 H   0  0  0  0  0  0  0  0  0  0  0  0
   -1.7187   -5.2697   -3.3579 H   0  0  0  0  0  0  0  0  0  0  0  0
    0.3918   -4.6035   -3.4870 H   0  0  0  0  0  0  0  0  0  0  0  0
   -4.6073   -7.1146   -0.8317 H   0  0  0  0  0  0  0  0  0  0  0  0
   -5.6304   -4.2447   -0.3324 H   0  0  0  0  0  0  0  0  0  0  0  0
   -3.6062   -5.7272    1.3820 H   0  0  0  0  0  0  0  0  0  0  0  0
   -4.0854   -4.0396    1.4013 H   0  0  0  0  0  0  0  0  0  0  0  0
   -9.7532   -5.5180    2.2174 H   0  0  0  0  0  0  0  0  0  0  0  0
   -6.6480   -8.1883    0.8190 H   0  0  0  0  0  0  0  0  0  0  0  0
   -8.4728  -10.9506    1.9807 H   0  0  0  0  0  0  0  0  0  0  0  0
  -11.0428   -9.6503    3.2224 H   0  0  0  0  0  0  0  0  0  0  0  0
  -11.5165   -6.5882    3.2220 H   0  0  0  0  0  0  0  0  0  0  0  0
   -6.1250   -4.2430   -2.7864 H   0  0  0  0  0  0  0  0  0  0  0  0
   -6.4287   -8.4023   -1.6317 H   0  0  0  0  0  0  0  0  0  0  0  0
   -9.2228   -8.7606   -3.7556 H   0  0  0  0  0  0  0  0  0  0  0  0
   -9.5880   -5.9022   -4.9698 H   0  0  0  0  0  0  0  0  0  0  0  0
   -7.7390   -3.5437   -4.2024 H   0  0  0  0  0  0  0  0  0  0  0  0
   -0.9651   -2.9143    1.7168 H   0  0  0  0  0  0  0  0  0  0  0  0
   -0.5140   -1.4271    3.2124 H   0  0  0  0  0  0  0  0  0  0  0  0
   -0.6120    3.2244    0.3774 H   0  0  0  0  0  0  0  0  0  0  0  0
    3.3929   -1.0803   -2.7992 H   0  0  0  0  0  0  0  0  0  0  0  0
    0.7400    0.4227   -5.8689 H   0  0  0  0  0  0  0  0  0  0  0  0
    2.9935   -0.7201   -8.3363 H   0  0  0  0  0  0  0  0  0  0  0  0
    5.2866   -2.0435   -6.6705 H   0  0  0  0  0  0  0  0  0  0  0  0
    5.1804   -2.2194   -3.5873 H   0  0  0  0  0  0  0  0  0  0  0  0
    4.7438    4.0065   -5.5105 H   0  0  0  0  0  0  0  0  0  0  0  0
    0.5179    3.0870   -5.7524 H   0  0  0  0  0  0  0  0  0  0  0  0
    0.5878    3.6167   -9.2147 H   0  0  0  0  0  0  0  0  0  0  0  0
    3.5697    4.4250   -9.7692 H   0  0  0  0  0  0  0  0  0  0  0  0
    5.6914    4.5760   -7.5158 H   0  0  0  0  0  0  0  0  0  0  0  0
  1  2  1  0  0  0  0
  1  6  1  0  0  0  0
  1 68  1  0  0  0  0
  1 69  1  0  0  0  0
  2  3  1  0  0  0  0
  2 56  1  0  0  0  0
  2 70  1  0  0  0  0
  3  4  1  0  0  0  0
  3 47  1  0  0  0  0
  3 71  1  0  0  0  0
  4  5  1  0  0  0  0
  5  6  2  0  0  0  0
  5 10  1  0  0  0  0
  6  7  1  0  0  0  0
  7  8  2  0  0  0  0
  7 46  1  0  0  0  0
  8  9  1  0  0  0  0
  8 72  1  0  0  0  0
  9 10  2  0  0  0  0
  9 45  1  0  0  0  0
 10 11  1  0  0  0  0
 11 12  1  0  0  0  0
 11 73  1  0  0  0  0
 11 74  1  0  0  0  0
 12 13  2  0  0  0  0
 12 17  1  0  0  0  0
 13 14  1  0  0  0  0
 13 44  1  0  0  0  0
 14 15  2  0  0  0  0
 14 22  1  0  0  0  0
 15 16  1  0  0  0  0
 15 19  1  0  0  0  0
 16 17  2  0  0  0  0
 16 75  1  0  0  0  0
 17 18  1  0  0  0  0
 18 76  1  0  0  0  0
 19 20  1  0  0  0  0
 20 21  1  0  0  0  0
 20 35  1  0  0  0  0
 20 77  1  0  0  0  0
 21 22  1  0  0  0  0
 21 23  1  0  0  0  0
 21 78  1  0  0  0  0
 22 79  1  0  0  0  0
 22 80  1  0  0  0  0
 23 24  1  0  0  0  0
 24 25  2  0  0  0  0
 24 26  1  0  0  0  0
 26 27  2  0  0  0  0
 26 31  1  0  0  0  0
 27 28  1  0  0  0  0
 27 81  1  0  0  0  0
 28 29  2  0  0  0  0
 28 34  1  0  0  0  0
 29 30  1  0  0  0  0
 29 33  1  0  0  0  0
 30 31  2  0  0  0  0
 30 32  1  0  0  0  0
 31 82  1  0  0  0  0
 32 83  1  0  0  0  0
 33 84  1  0  0  0  0
 34 85  1  0  0  0  0
 35 36  2  0  0  0  0
 35 40  1  0  0  0  0
 36 37  1  0  0  0  0
 36 86  1  0  0  0  0
 37 38  2  0  0  0  0
 37 43  1  0  0  0  0
 38 39  1  0  0  0  0
 38 42  1  0  0  0  0
 39 40  2  0  0  0  0
 39 41  1  0  0  0  0
 40 87  1  0  0  0  0
 41 88  1  0  0  0  0
 42 89  1  0  0  0  0
 43 90  1  0  0  0  0
 44 91  1  0  0  0  0
 45 92  1  0  0  0  0
 46 93  1  0  0  0  0
 47 48  2  0  0  0  0
 47 52  1  0  0  0  0
 48 49  1  0  0  0  0
 48 94  1  0  0  0  0
 49 50  2  0  0  0  0
 49 55  1  0  0  0  0
 50 51  1  0  0  0  0
 50 54  1  0  0  0  0
 51 52  2  0  0  0  0
 51 53  1  0  0  0  0
 52 95  1  0  0  0  0
 53 96  1  0  0  0  0
 54 97  1  0  0  0  0
 55 98  1  0  0  0  0
 56 57  1  0  0  0  0
 57 58  2  0  0  0  0
 57 59  1  0  0  0  0
 59 60  2  0  0  0  0
 59 64  1  0  0  0  0
 60 61  1  0  0  0  0
 60 99  1  0  0  0  0
 61 62  2  0  0  0  0
 61 67  1  0  0  0  0
 62 63  1  0  0  0  0
 62 66  1  0  0  0  0
 63 64  2  0  0  0  0
 63 65  1  0  0  0  0
 64100  1  0  0  0  0
 65101  1  0  0  0  0
 66102  1  0  0  0  0
 67103  1  0  0  0  0
M  END
$$$$
