
 OpenBabel02242208093D

177186  0  0  1  0  0  0  0  0999 V2000
    0.2285    5.8153    1.1157 C   0  0  0  0  0  0  0  0  0  0  0  0
   -0.7676    6.6270    0.3019 C   0  0  3  0  0  0  0  0  0  0  0  0
   -1.6044    7.5596    1.2763 C   0  0  3  0  0  0  0  0  0  0  0  0
   -3.0545    7.4676    0.8626 C   0  0  3  0  0  0  0  0  0  0  0  0
   -3.1703    7.2342   -0.6232 C   0  0  3  0  0  0  0  0  0  0  0  0
   -2.4297    6.1657   -1.5266 C   0  0  3  0  0  0  0  0  0  0  0  0
   -1.4558    5.6168   -0.5761 O   0  0  0  0  0  0  0  0  0  0  0  0
   -3.2091    5.2889   -2.5116 O   0  0  0  0  0  0  0  0  0  0  0  0
   -4.1343    5.7538   -3.6624 C   0  0  3  0  0  0  0  0  0  0  0  0
   -5.1060    6.7994   -3.2147 C   0  0  3  0  0  0  0  0  0  0  0  0
   -4.2831    8.1161   -3.0953 C   0  0  3  0  0  0  0  0  0  0  0  0
   -2.9790    8.2541   -3.8963 C   0  0  0  0  0  0  0  0  0  0  0  0
   -2.9334    7.5422   -5.0946 O   0  0  0  0  0  0  0  0  0  0  0  0
   -3.6938    6.3437   -5.0833 C   0  0  3  0  0  0  0  0  0  0  0  0
   -4.9045    6.6690   -5.9068 O   0  0  0  0  0  0  0  0  0  0  0  0
   -4.9460    5.8717   -7.0251 C   0  0  0  0  0  0  0  0  0  0  0  0
   -4.1348    5.0922   -7.2278 O   0  0  0  0  0  0  0  0  0  0  0  0
   -6.1034    6.0870   -8.0499 C   0  0  3  0  0  0  0  0  0  0  0  0
   -5.4218    6.8948   -9.1755 C   0  0  0  0  0  0  0  0  0  0  0  0
   -5.4114    8.4149   -8.9214 C   0  0  0  0  0  0  0  0  0  0  0  0
   -6.7714    9.0497   -8.5810 C   0  0  0  0  0  0  0  0  0  0  0  0
   -7.4683    8.2600   -7.4745 C   0  0  0  0  0  0  0  0  0  0  0  0
   -7.4727    6.7408   -7.7051 C   0  0  3  0  0  0  0  0  0  0  0  0
   -8.3043    5.9841   -6.6867 C   0  0  0  0  0  0  0  0  0  0  0  0
   -9.0018    6.6178   -5.7248 C   0  0  0  0  0  0  0  0  0  0  0  0
  -10.0049    5.9933   -4.8254 C   0  0  0  0  0  0  0  0  0  0  0  0
  -10.2114    4.4851   -5.1043 C   0  0  3  0  0  0  0  0  0  0  0  0
   -8.9350    3.7442   -5.6383 C   0  0  3  0  0  0  0  0  0  0  0  0
   -8.4665    4.4839   -6.9526 C   0  0  3  0  0  0  0  0  0  0  0  0
   -7.1581    3.8288   -7.4456 C   0  0  0  0  0  0  0  0  0  0  0  0
   -6.4104    4.6043   -8.5167 C   0  0  3  0  0  0  0  0  0  0  0  0
   -5.2857    3.7897   -8.8681 O   0  0  0  0  0  0  0  0  0  0  0  0
   -9.5137    4.3541   -8.1036 C   0  0  0  0  0  0  0  0  0  0  0  0
   -9.2516    2.2509   -5.9640 C   0  0  0  0  0  0  0  0  0  0  0  0
  -10.6751    1.8718   -5.6165 C   0  0  0  0  0  0  0  0  0  0  0  0
  -10.8216    2.1720   -4.1244 C   0  0  3  0  0  0  0  0  0  0  0  0
  -10.8818    3.7217   -3.9276 C   0  0  3  0  0  0  0  0  0  0  0  0
  -12.3473    4.1139   -3.9293 C   0  0  0  0  0  0  0  0  0  0  0  0
  -13.1920    3.4209   -2.8920 C   0  0  3  0  0  0  0  0  0  0  0  0
  -12.3928    2.0542   -2.1268 C   0  0  3  0  0  0  0  0  0  0  0  0
  -11.9064    1.2785   -3.4344 C   0  0  0  0  0  0  0  0  0  0  0  0
  -13.1784    0.9809   -4.3241 C   0  0  0  0  0  0  0  0  0  0  0  0
  -14.1273    0.2149   -3.5760 O   0  0  0  0  0  0  0  0  0  0  0  0
  -11.2807   -0.1453   -3.2631 C   0  0  0  0  0  0  0  0  0  0  0  0
  -10.0277   -0.1771   -2.6074 O   0  0  0  0  0  0  0  0  0  0  0  0
  -11.3628    2.1760   -1.0932 O   0  0  0  0  0  0  0  0  0  0  0  0
  -11.4701    2.6298    0.3169 C   0  0  3  0  0  0  0  0  0  0  0  0
  -11.6433    4.1482    0.6129 C   0  0  3  0  0  0  0  0  0  0  0  0
  -12.8086    4.4932   -0.2394 C   0  0  3  0  0  0  0  0  0  0  0  0
  -13.9799    3.4593   -0.1575 C   0  0  3  0  0  0  0  0  0  0  0  0
  -13.8299    2.3291    0.8301 C   0  0  3  0  0  0  0  0  0  0  0  0
  -12.4749    1.9697    1.1236 O   0  0  0  0  0  0  0  0  0  0  0  0
  -14.7999    2.6876    1.9445 C   0  0  0  0  0  0  0  0  0  0  0  0
  -14.6618    1.8714    3.0803 O   0  0  0  0  0  0  0  0  0  0  0  0
  -15.2924    3.9534   -0.4653 O   0  0  0  0  0  0  0  0  0  0  0  0
  -13.1938    5.8607   -0.2457 O   0  0  0  0  0  0  0  0  0  0  0  0
  -10.5460    5.0065    0.2743 O   0  0  0  0  0  0  0  0  0  0  0  0
  -13.8507    4.6159   -2.4174 O   0  0  0  0  0  0  0  0  0  0  0  0
  -10.1746    4.1971   -2.6349 C   0  0  0  0  0  0  0  0  0  0  0  0
   -7.8137    3.7331   -4.5416 C   0  0  0  0  0  0  0  0  0  0  0  0
   -7.6500    9.0953   -9.8429 C   0  0  0  0  0  0  0  0  0  0  0  0
   -6.5972   10.4933   -8.0619 C   0  0  0  0  0  0  0  0  0  0  0  0
   -5.1630    9.2136   -2.9756 O   0  0  0  0  0  0  0  0  0  0  0  0
   -5.8437    6.2305   -2.1162 O   0  0  0  0  0  0  0  0  0  0  0  0
   -4.5828    7.3539   -0.6759 O   0  0  0  0  0  0  0  0  0  0  0  0
   -3.8840    6.5278    1.5531 O   0  0  0  0  0  0  0  0  0  0  0  0
   -1.2454    8.9700    1.1421 O   0  0  0  0  0  0  0  0  0  0  0  0
    0.0009    9.4799    1.5987 C   0  0  3  0  0  0  0  0  0  0  0  0
    1.3322    9.0423    1.0105 C   0  0  3  0  0  0  0  0  0  0  0  0
    1.4309    9.3008   -0.5424 C   0  0  3  0  0  0  0  0  0  0  0  0
    0.1183    9.9548   -1.1085 C   0  0  3  0  0  0  0  0  0  0  0  0
   -0.1105   11.0914   -0.2113 C   0  0  0  0  0  0  0  0  0  0  0  0
    0.0709   10.8289    1.1933 O   0  0  0  0  0  0  0  0  0  0  0  0
    0.0489   10.3391   -2.4792 O   0  0  0  0  0  0  0  0  0  0  0  0
    2.6871    9.9348   -0.8924 O   0  0  0  0  0  0  0  0  0  0  0  0
    3.2128   11.1313   -0.2781 C   0  0  3  0  0  0  0  0  0  0  0  0
    2.5490   12.4737   -0.6640 C   0  0  3  0  0  0  0  0  0  0  0  0
    1.7577   13.0319    0.7324 C   0  0  3  0  0  0  0  0  0  0  0  0
    2.7303   12.3344    1.7234 C   0  0  0  0  0  0  0  0  0  0  0  0
    3.3454   11.1459    1.1414 O   0  0  0  0  0  0  0  0  0  0  0  0
    0.0444   13.2783    1.2794 C   0  0  0  0  0  0  0  0  0  0  0  0
   -1.1976   12.5453    1.5415 O   0  0  0  0  0  0  0  0  0  0  0  0
    2.0596   14.4608    0.6773 O   0  0  0  0  0  0  0  0  0  0  0  0
    1.9033   12.4418   -1.9382 O   0  0  0  0  0  0  0  0  0  0  0  0
    1.7137    7.7640    1.4163 O   0  0  0  0  0  0  0  0  0  0  0  0
   -0.0315    4.7654    1.1574 H   0  0  0  0  0  0  0  0  0  0  0  0
    0.3325    6.1836    2.1466 H   0  0  0  0  0  0  0  0  0  0  0  0
    1.2069    5.8522    0.6176 H   0  0  0  0  0  0  0  0  0  0  0  0
   -0.2099    7.3084   -0.3470 H   0  0  0  0  0  0  0  0  0  0  0  0
   -1.5498    7.3295    2.3437 H   0  0  0  0  0  0  0  0  0  0  0  0
   -3.5600    8.4354    1.0662 H   0  0  0  0  0  0  0  0  0  0  0  0
   -2.6316    8.1314   -0.9650 H   0  0  0  0  0  0  0  0  0  0  0  0
   -1.7151    6.5588   -2.2463 H   0  0  0  0  0  0  0  0  0  0  0  0
   -4.7432    4.8590   -3.9134 H   0  0  0  0  0  0  0  0  0  0  0  0
   -5.9106    7.0365   -3.9138 H   0  0  0  0  0  0  0  0  0  0  0  0
   -3.7998    8.2953   -2.1899 H   0  0  0  0  0  0  0  0  0  0  0  0
   -2.1056    7.8831   -3.3487 H   0  0  0  0  0  0  0  0  0  0  0  0
   -2.7068    9.3004   -4.0148 H   0  0  0  0  0  0  0  0  0  0  0  0
   -3.0698    5.6020   -5.5640 H   0  0  0  0  0  0  0  0  0  0  0  0
   -5.8872    6.6675  -10.1429 H   0  0  0  0  0  0  0  0  0  0  0  0
   -4.3736    6.5860   -9.2788 H   0  0  0  0  0  0  0  0  0  0  0  0
   -5.0003    8.8958   -9.8164 H   0  0  0  0  0  0  0  0  0  0  0  0
   -4.7110    8.6265   -8.1052 H   0  0  0  0  0  0  0  0  0  0  0  0
   -8.5085    8.6279   -7.4241 H   0  0  0  0  0  0  0  0  0  0  0  0
   -7.0220    8.4867   -6.4984 H   0  0  0  0  0  0  0  0  0  0  0  0
   -8.0734    6.6414   -8.6234 H   0  0  0  0  0  0  0  0  0  0  0  0
   -8.9238    7.6889   -5.5543 H   0  0  0  0  0  0  0  0  0  0  0  0
  -10.9632    6.5183   -4.9477 H   0  0  0  0  0  0  0  0  0  0  0  0
   -9.6883    6.2362   -3.8084 H   0  0  0  0  0  0  0  0  0  0  0  0
  -10.9498    4.4825   -5.9167 H   0  0  0  0  0  0  0  0  0  0  0  0
   -7.3542    2.8215   -7.8342 H   0  0  0  0  0  0  0  0  0  0  0  0
   -6.4552    3.6547   -6.6281 H   0  0  0  0  0  0  0  0  0  0  0  0
   -7.0036    4.6257   -9.4379 H   0  0  0  0  0  0  0  0  0  0  0  0
   -4.7445    3.6715   -8.0484 H   0  0  0  0  0  0  0  0  0  0  0  0
  -10.4681    4.8310   -7.8643 H   0  0  0  0  0  0  0  0  0  0  0  0
   -9.7227    3.3151   -8.3698 H   0  0  0  0  0  0  0  0  0  0  0  0
   -9.1651    4.8268   -9.0257 H   0  0  0  0  0  0  0  0  0  0  0  0
   -8.5779    1.5928   -5.3986 H   0  0  0  0  0  0  0  0  0  0  0  0
   -9.0751    1.9776   -7.0022 H   0  0  0  0  0  0  0  0  0  0  0  0
  -10.8249    0.8229   -5.8749 H   0  0  0  0  0  0  0  0  0  0  0  0
  -11.4036    2.4322   -6.2188 H   0  0  0  0  0  0  0  0  0  0  0  0
   -9.8822    1.8832   -3.6436 H   0  0  0  0  0  0  0  0  0  0  0  0
  -12.8339    3.9289   -4.8914 H   0  0  0  0  0  0  0  0  0  0  0  0
  -12.3986    5.2065   -3.8015 H   0  0  0  0  0  0  0  0  0  0  0  0
  -14.0871    2.9407   -3.2731 H   0  0  0  0  0  0  0  0  0  0  0  0
  -13.1108    1.3605   -1.6761 H   0  0  0  0  0  0  0  0  0  0  0  0
  -12.9419    0.4362   -5.2391 H   0  0  0  0  0  0  0  0  0  0  0  0
  -13.7081    1.8616   -4.6837 H   0  0  0  0  0  0  0  0  0  0  0  0
  -14.3626   -0.5636   -4.1147 H   0  0  0  0  0  0  0  0  0  0  0  0
  -11.0832   -0.5582   -4.2642 H   0  0  0  0  0  0  0  0  0  0  0  0
  -11.9590   -0.8605   -2.7895 H   0  0  0  0  0  0  0  0  0  0  0  0
  -10.1831   -0.4678   -1.6940 H   0  0  0  0  0  0  0  0  0  0  0  0
  -10.4963    2.3562    0.7543 H   0  0  0  0  0  0  0  0  0  0  0  0
  -11.8959    4.3566    1.6530 H   0  0  0  0  0  0  0  0  0  0  0  0
  -12.2793    4.4113   -1.1781 H   0  0  0  0  0  0  0  0  0  0  0  0
  -13.9148    2.8246   -1.0002 H   0  0  0  0  0  0  0  0  0  0  0  0
  -14.2222    1.4009    0.3937 H   0  0  0  0  0  0  0  0  0  0  0  0
  -15.8137    2.5369    1.5407 H   0  0  0  0  0  0  0  0  0  0  0  0
  -14.7351    3.7465    2.2207 H   0  0  0  0  0  0  0  0  0  0  0  0
  -14.8630    0.9659    2.7935 H   0  0  0  0  0  0  0  0  0  0  0  0
  -15.7487    3.2653   -1.0003 H   0  0  0  0  0  0  0  0  0  0  0  0
  -13.6292    5.9634   -1.1252 H   0  0  0  0  0  0  0  0  0  0  0  0
  -10.9570    5.8871    0.1247 H   0  0  0  0  0  0  0  0  0  0  0  0
  -14.6826    4.4677   -1.9341 H   0  0  0  0  0  0  0  0  0  0  0  0
   -9.1833    4.6242   -2.7740 H   0  0  0  0  0  0  0  0  0  0  0  0
   -9.9559    3.3948   -1.9471 H   0  0  0  0  0  0  0  0  0  0  0  0
  -10.7167    5.0172   -2.1671 H   0  0  0  0  0  0  0  0  0  0  0  0
   -8.1133    3.1795   -3.6469 H   0  0  0  0  0  0  0  0  0  0  0  0
   -7.5238    4.7420   -4.2374 H   0  0  0  0  0  0  0  0  0  0  0  0
   -6.9089    3.2032   -4.8400 H   0  0  0  0  0  0  0  0  0  0  0  0
   -7.8188    8.0987  -10.2605 H   0  0  0  0  0  0  0  0  0  0  0  0
   -7.1721    9.7008  -10.6197 H   0  0  0  0  0  0  0  0  0  0  0  0
   -8.6311    9.5357   -9.6305 H   0  0  0  0  0  0  0  0  0  0  0  0
   -5.9947   10.5200   -7.1457 H   0  0  0  0  0  0  0  0  0  0  0  0
   -7.5685   10.9435   -7.8159 H   0  0  0  0  0  0  0  0  0  0  0  0
   -6.1108   11.1314   -8.8046 H   0  0  0  0  0  0  0  0  0  0  0  0
   -5.6144    8.9998   -2.1229 H   0  0  0  0  0  0  0  0  0  0  0  0
   -6.6167    5.7494   -2.4711 H   0  0  0  0  0  0  0  0  0  0  0  0
   -4.9490    6.4769   -0.9327 H   0  0  0  0  0  0  0  0  0  0  0  0
   -4.7847    6.7318    1.2021 H   0  0  0  0  0  0  0  0  0  0  0  0
    0.0237    9.4953    2.7006 H   0  0  0  0  0  0  0  0  0  0  0  0
    2.0726    9.6416    1.5189 H   0  0  0  0  0  0  0  0  0  0  0  0
    1.4974    8.3386   -1.0557 H   0  0  0  0  0  0  0  0  0  0  0  0
   -0.7540    9.3304   -0.9759 H   0  0  0  0  0  0  0  0  0  0  0  0
   -0.9188   11.7742   -0.4785 H   0  0  0  0  0  0  0  0  0  0  0  0
    0.6864   11.7233   -0.4526 H   0  0  0  0  0  0  0  0  0  0  0  0
   -0.8917   10.2740   -2.7554 H   0  0  0  0  0  0  0  0  0  0  0  0
    4.2506   11.1303   -0.6601 H   0  0  0  0  0  0  0  0  0  0  0  0
    3.4045   13.1443   -0.8599 H   0  0  0  0  0  0  0  0  0  0  0  0
    2.2566   12.0205    2.6532 H   0  0  0  0  0  0  0  0  0  0  0  0
    3.5819   12.9843    1.9623 H   0  0  0  0  0  0  0  0  0  0  0  0
   -0.3516   13.9236    0.4949 H   0  0  0  0  0  0  0  0  0  0  0  0
    0.0981   13.8164    2.2241 H   0  0  0  0  0  0  0  0  0  0  0  0
   -1.0488   11.7351    2.0722 H   0  0  0  0  0  0  0  0  0  0  0  0
    1.4023   14.8004    0.0339 H   0  0  0  0  0  0  0  0  0  0  0  0
    2.2897   11.6923   -2.4502 H   0  0  0  0  0  0  0  0  0  0  0  0
    2.3016    7.8413    2.1859 H   0  0  0  0  0  0  0  0  0  0  0  0
  1  2  1  0  0  0  0
  1 86  1  0  0  0  0
  1 87  1  0  0  0  0
  1 88  1  0  0  0  0
  2  3  1  0  0  0  0
  2  7  1  0  0  0  0
  2 89  1  0  0  0  0
  3  4  1  0  0  0  0
  3 67  1  0  0  0  0
  3 90  1  0  0  0  0
  4  5  1  0  0  0  0
  4 66  1  0  0  0  0
  4 91  1  0  0  0  0
  5  6  1  0  0  0  0
  5 65  1  0  0  0  0
  5 92  1  0  0  0  0
  6  7  1  0  0  0  0
  6  8  1  0  0  0  0
  6 93  1  0  0  0  0
  8  9  1  0  0  0  0
  9 10  1  0  0  0  0
  9 14  1  0  0  0  0
  9 94  1  0  0  0  0
 10 11  1  0  0  0  0
 10 64  1  0  0  0  0
 10 95  1  0  0  0  0
 11 12  1  0  0  0  0
 11 63  1  0  0  0  0
 11 96  1  0  0  0  0
 12 13  1  0  0  0  0
 12 97  1  0  0  0  0
 12 98  1  0  0  0  0
 13 14  1  0  0  0  0
 14 15  1  0  0  0  0
 14 99  1  0  0  0  0
 15 16  1  0  0  0  0
 16 17  2  0  0  0  0
 16 18  1  0  0  0  0
 18 19  1  0  0  0  0
 18 23  1  0  0  0  0
 18 31  1  0  0  0  0
 19 20  1  0  0  0  0
 19100  1  0  0  0  0
 19101  1  0  0  0  0
 20 21  1  0  0  0  0
 20102  1  0  0  0  0
 20103  1  0  0  0  0
 21 22  1  0  0  0  0
 21 61  1  0  0  0  0
 21 62  1  0  0  0  0
 22 23  1  0  0  0  0
 22104  1  0  0  0  0
 22105  1  0  0  0  0
 23 24  1  0  0  0  0
 23106  1  0  0  0  0
 24 25  2  0  0  0  0
 24 29  1  0  0  0  0
 25 26  1  0  0  0  0
 25107  1  0  0  0  0
 26 27  1  0  0  0  0
 26108  1  0  0  0  0
 26109  1  0  0  0  0
 27 28  1  0  0  0  0
 27 37  1  0  0  0  0
 27110  1  0  0  0  0
 28 29  1  0  0  0  0
 28 34  1  0  0  0  0
 28 60  1  0  0  0  0
 29 30  1  0  0  0  0
 29 33  1  0  0  0  0
 30 31  1  0  0  0  0
 30111  1  0  0  0  0
 30112  1  0  0  0  0
 31 32  1  0  0  0  0
 31113  1  0  0  0  0
 32114  1  0  0  0  0
 33115  1  0  0  0  0
 33116  1  0  0  0  0
 33117  1  0  0  0  0
 34 35  1  0  0  0  0
 34118  1  0  0  0  0
 34119  1  0  0  0  0
 35 36  1  0  0  0  0
 35120  1  0  0  0  0
 35121  1  0  0  0  0
 36 37  1  0  0  0  0
 36 41  1  0  0  0  0
 36122  1  0  0  0  0
 37 38  1  0  0  0  0
 37 59  1  0  0  0  0
 38 39  1  0  0  0  0
 38123  1  0  0  0  0
 38124  1  0  0  0  0
 39 40  1  0  0  0  0
 39 58  1  0  0  0  0
 39125  1  0  0  0  0
 40 41  1  0  0  0  0
 40 46  1  0  0  0  0
 40126  1  0  0  0  0
 41 42  1  0  0  0  0
 41 44  1  0  0  0  0
 42 43  1  0  0  0  0
 42127  1  0  0  0  0
 42128  1  0  0  0  0
 43129  1  0  0  0  0
 44 45  1  0  0  0  0
 44130  1  0  0  0  0
 44131  1  0  0  0  0
 45132  1  0  0  0  0
 46 47  1  0  0  0  0
 47 48  1  0  0  0  0
 47 52  1  0  0  0  0
 47133  1  0  0  0  0
 48 49  1  0  0  0  0
 48 57  1  0  0  0  0
 48134  1  0  0  0  0
 49 50  1  0  0  0  0
 49 56  1  0  0  0  0
 49135  1  0  0  0  0
 50 51  1  0  0  0  0
 50 55  1  0  0  0  0
 50136  1  0  0  0  0
 51 52  1  0  0  0  0
 51 53  1  0  0  0  0
 51137  1  0  0  0  0
 53 54  1  0  0  0  0
 53138  1  0  0  0  0
 53139  1  0  0  0  0
 54140  1  0  0  0  0
 55141  1  0  0  0  0
 56142  1  0  0  0  0
 57143  1  0  0  0  0
 58144  1  0  0  0  0
 59145  1  0  0  0  0
 59146  1  0  0  0  0
 59147  1  0  0  0  0
 60148  1  0  0  0  0
 60149  1  0  0  0  0
 60150  1  0  0  0  0
 61151  1  0  0  0  0
 61152  1  0  0  0  0
 61153  1  0  0  0  0
 62154  1  0  0  0  0
 62155  1  0  0  0  0
 62156  1  0  0  0  0
 63157  1  0  0  0  0
 64158  1  0  0  0  0
 65159  1  0  0  0  0
 66160  1  0  0  0  0
 67 68  1  0  0  0  0
 68 69  1  0  0  0  0
 68 73  1  0  0  0  0
 68161  1  0  0  0  0
 69 70  1  0  0  0  0
 69 85  1  0  0  0  0
 69162  1  0  0  0  0
 70 71  1  0  0  0  0
 70 75  1  0  0  0  0
 70163  1  0  0  0  0
 71 72  1  0  0  0  0
 71 74  1  0  0  0  0
 71164  1  0  0  0  0
 72 73  1  0  0  0  0
 72165  1  0  0  0  0
 72166  1  0  0  0  0
 74167  1  0  0  0  0
 75 76  1  0  0  0  0
 76 77  1  0  0  0  0
 76 80  1  0  0  0  0
 76168  1  0  0  0  0
 77 78  1  0  0  0  0
 77 84  1  0  0  0  0
 77169  1  0  0  0  0
 78 79  1  0  0  0  0
 78 81  1  0  0  0  0
 78 83  1  0  0  0  0
 79 80  1  0  0  0  0
 79170  1  0  0  0  0
 79171  1  0  0  0  0
 81 82  1  0  0  0  0
 81172  1  0  0  0  0
 81173  1  0  0  0  0
 82174  1  0  0  0  0
 83175  1  0  0  0  0
 84176  1  0  0  0  0
 85177  1  0  0  0  0
M  END
$$$$
