
 OpenBabel02242208143D

123129  0  0  1  0  0  0  0  0999 V2000
    2.6410   -6.8434    3.0780 C   0  0  0  0  0  0  0  0  0  0  0  0
    3.8121   -5.9169    2.7496 C   0  0  3  0  0  0  0  0  0  0  0  0
    3.7300   -5.2416    1.3717 C   0  0  3  0  0  0  0  0  0  0  0  0
    2.7125   -4.0923    1.3689 C   0  0  3  0  0  0  0  0  0  0  0  0
    2.9583   -3.1412    2.5420 C   0  0  3  0  0  0  0  0  0  0  0  0
    2.9990   -3.9427    3.8610 C   0  0  3  0  0  0  0  0  0  0  0  0
    4.0056   -4.9547    3.7928 O   0  0  0  0  0  0  0  0  0  0  0  0
    3.3174   -3.0457    4.9375 O   0  0  0  0  0  0  0  0  0  0  0  0
    3.3140   -3.7413    6.1977 C   0  0  0  0  0  0  0  0  0  0  0  0
    3.6161   -2.7835    7.3678 C   0  0  3  0  0  0  0  0  0  0  0  0
    3.6573   -3.4849    8.7328 C   0  0  3  0  0  0  0  0  0  0  0  0
    4.9853   -4.2360    8.9332 C   0  0  3  0  0  0  0  0  0  0  0  0
    6.1854   -3.3316    8.6428 C   0  0  3  0  0  0  0  0  0  0  0  0
    6.0364   -2.7469    7.2240 C   0  0  3  0  0  0  0  0  0  0  0  0
    4.8125   -2.0184    7.1887 O   0  0  0  0  0  0  0  0  0  0  0  0
    7.1514   -1.8655    6.9838 O   0  0  0  0  0  0  0  0  0  0  0  0
    7.1805   -1.3037    5.6513 C   0  0  3  0  0  0  0  0  0  0  0  0
    5.9715   -0.3688    5.4216 C   0  0  0  0  0  0  0  0  0  0  0  0
    6.0098    0.5290    4.1897 C   0  0  0  0  0  0  0  0  0  0  0  0
    7.3277    1.3404    4.1036 C   0  0  3  0  0  0  0  0  0  0  0  0
    8.4353    0.1905    4.0436 C   0  0  3  0  0  0  0  0  0  0  0  0
    8.5887   -0.6491    5.3652 C   0  0  3  0  0  0  0  0  0  0  0  0
    9.1526    0.2064    6.5317 C   0  0  0  0  0  0  0  0  0  0  0  0
    9.6314   -1.7997    5.1833 C   0  0  0  0  0  0  0  0  0  0  0  0
    9.2741   -2.6851    4.1304 O   0  0  0  0  0  0  0  0  0  0  0  0
    9.7735    0.5521    3.3890 C   0  0  0  0  0  0  0  0  0  0  0  0
    9.5828    1.2731    2.0624 C   0  0  0  0  0  0  0  0  0  0  0  0
    8.7760    2.5737    2.2210 C   0  0  3  0  0  0  0  0  0  0  0  0
    7.3428    2.1878    2.7639 C   0  0  3  0  0  0  0  0  0  0  0  0
    6.3394    3.3903    2.6861 C   0  0  0  0  0  0  0  0  0  0  0  0
    6.8141    4.6251    1.9512 C   0  0  0  0  0  0  0  0  0  0  0  0
    7.9280    4.6817    1.1827 C   0  0  0  0  0  0  0  0  0  0  0  0
    8.5722    3.3411    0.8205 C   0  0  3  0  0  0  0  0  0  0  0  0
    9.8435    3.4720   -0.0388 C   0  0  0  0  0  0  0  0  0  0  0  0
   10.7342    4.6330    0.3106 C   0  0  0  0  0  0  0  0  0  0  0  0
   10.0262    6.0084    0.1869 C   0  0  3  0  0  0  0  0  0  0  0  0
    8.6329    6.0448    0.9283 C   0  0  3  0  0  0  0  0  0  0  0  0
    8.5693    6.9244    2.2377 C   0  0  0  0  0  0  0  0  0  0  0  0
    9.7382    7.8493    2.6259 C   0  0  0  0  0  0  0  0  0  0  0  0
   11.0590    7.2187    2.1930 C   0  0  0  0  0  0  0  0  0  0  0  0
   11.0895    7.0225    0.6859 C   0  0  0  0  0  0  0  0  0  0  0  0
    9.7528    8.0274    4.1624 C   0  0  0  0  0  0  0  0  0  0  0  0
    9.5573    9.2469    2.0067 C   0  0  0  0  0  0  0  0  0  0  0  0
    9.8129    6.3142   -1.3227 C   0  0  0  0  0  0  0  0  0  0  0  0
   10.2084    5.6329   -2.2313 O   0  0  0  0  0  0  0  0  0  0  0  0
    9.1750    7.4908   -1.5682 O   0  0  0  0  0  0  0  0  0  0  0  0
    7.5923    2.5773   -0.1436 C   0  0  0  0  0  0  0  0  0  0  0  0
    9.5749    3.4385    3.2427 C   0  0  0  0  0  0  0  0  0  0  0  0
    7.2821    2.2806    5.3420 C   0  0  0  0  0  0  0  0  0  0  0  0
    6.1916   -2.2812    9.6379 O   0  0  0  0  0  0  0  0  0  0  0  0
    5.0317   -4.7185   10.2854 O   0  0  0  0  0  0  0  0  0  0  0  0
    2.5678   -4.3957    8.8910 O   0  0  0  0  0  0  0  0  0  0  0  0
    4.2143   -2.4672    2.3074 O   0  0  0  0  0  0  0  0  0  0  0  0
    2.8261   -3.3894    0.1195 O   0  0  0  0  0  0  0  0  0  0  0  0
    3.3947   -6.1840    0.3505 O   0  0  0  0  0  0  0  0  0  0  0  0
    2.6240   -7.7100    2.4104 H   0  0  0  0  0  0  0  0  0  0  0  0
    1.6758   -6.3351    2.9951 H   0  0  0  0  0  0  0  0  0  0  0  0
    2.7222   -7.2030    4.1099 H   0  0  0  0  0  0  0  0  0  0  0  0
    4.7092   -6.5479    2.7556 H   0  0  0  0  0  0  0  0  0  0  0  0
    4.7183   -4.8397    1.1145 H   0  0  0  0  0  0  0  0  0  0  0  0
    1.6936   -4.4937    1.4046 H   0  0  0  0  0  0  0  0  0  0  0  0
    2.1976   -2.3539    2.5772 H   0  0  0  0  0  0  0  0  0  0  0  0
    2.0142   -4.3848    4.0552 H   0  0  0  0  0  0  0  0  0  0  0  0
    4.0640   -4.5362    6.1618 H   0  0  0  0  0  0  0  0  0  0  0  0
    2.3281   -4.1980    6.3419 H   0  0  0  0  0  0  0  0  0  0  0  0
    2.8028   -2.0474    7.3785 H   0  0  0  0  0  0  0  0  0  0  0  0
    3.5534   -2.7292    9.5218 H   0  0  0  0  0  0  0  0  0  0  0  0
    5.0130   -5.1218    8.2890 H   0  0  0  0  0  0  0  0  0  0  0  0
    7.1321   -3.8664    8.7669 H   0  0  0  0  0  0  0  0  0  0  0  0
    6.0524   -3.5449    6.4728 H   0  0  0  0  0  0  0  0  0  0  0  0
    7.0578   -2.1359    4.9453 H   0  0  0  0  0  0  0  0  0  0  0  0
    5.7806    0.2159    6.3288 H   0  0  0  0  0  0  0  0  0  0  0  0
    5.0807   -0.9850    5.2736 H   0  0  0  0  0  0  0  0  0  0  0  0
    5.1334    1.1883    4.2060 H   0  0  0  0  0  0  0  0  0  0  0  0
    5.8879   -0.1024    3.2993 H   0  0  0  0  0  0  0  0  0  0  0  0
    8.0330   -0.5296    3.3099 H   0  0  0  0  0  0  0  0  0  0  0  0
    9.4097    1.2219    6.2142 H   0  0  0  0  0  0  0  0  0  0  0  0
   10.0918   -0.1927    6.9328 H   0  0  0  0  0  0  0  0  0  0  0  0
    8.4579    0.2758    7.3734 H   0  0  0  0  0  0  0  0  0  0  0  0
    9.7547   -2.3795    6.1054 H   0  0  0  0  0  0  0  0  0  0  0  0
   10.6262   -1.4014    4.9485 H   0  0  0  0  0  0  0  0  0  0  0  0
    8.9963   -3.5212    4.5416 H   0  0  0  0  0  0  0  0  0  0  0  0
   10.3323   -0.3571    3.1414 H   0  0  0  0  0  0  0  0  0  0  0  0
   10.4227    1.1073    4.0711 H   0  0  0  0  0  0  0  0  0  0  0  0
    9.0921    0.5974    1.3515 H   0  0  0  0  0  0  0  0  0  0  0  0
   10.5842    1.4711    1.6677 H   0  0  0  0  0  0  0  0  0  0  0  0
    6.9520    1.4657    2.0317 H   0  0  0  0  0  0  0  0  0  0  0  0
    6.0786    3.7489    3.6818 H   0  0  0  0  0  0  0  0  0  0  0  0
    5.3943    3.0527    2.2434 H   0  0  0  0  0  0  0  0  0  0  0  0
    6.2932    5.5387    2.2309 H   0  0  0  0  0  0  0  0  0  0  0  0
    9.5682    3.5760   -1.0956 H   0  0  0  0  0  0  0  0  0  0  0  0
   10.4299    2.5490   -0.0332 H   0  0  0  0  0  0  0  0  0  0  0  0
   11.6042    4.5925   -0.3613 H   0  0  0  0  0  0  0  0  0  0  0  0
   11.1545    4.5008    1.3047 H   0  0  0  0  0  0  0  0  0  0  0  0
    7.9267    6.5402    0.2498 H   0  0  0  0  0  0  0  0  0  0  0  0
    8.3987    6.2720    3.0997 H   0  0  0  0  0  0  0  0  0  0  0  0
    7.6523    7.5301    2.1870 H   0  0  0  0  0  0  0  0  0  0  0  0
   11.2049    6.2594    2.7071 H   0  0  0  0  0  0  0  0  0  0  0  0
   11.9036    7.8511    2.4935 H   0  0  0  0  0  0  0  0  0  0  0  0
   12.0979    6.6806    0.4106 H   0  0  0  0  0  0  0  0  0  0  0  0
   10.9968    7.9868    0.1779 H   0  0  0  0  0  0  0  0  0  0  0  0
    9.8813    7.0676    4.6771 H   0  0  0  0  0  0  0  0  0  0  0  0
    8.8138    8.4682    4.5174 H   0  0  0  0  0  0  0  0  0  0  0  0
   10.5713    8.6831    4.4802 H   0  0  0  0  0  0  0  0  0  0  0  0
    9.3673    9.2028    0.9321 H   0  0  0  0  0  0  0  0  0  0  0  0
   10.4505    9.8623    2.1664 H   0  0  0  0  0  0  0  0  0  0  0  0
    8.7085    9.7725    2.4572 H   0  0  0  0  0  0  0  0  0  0  0  0
    8.8958    8.0028   -0.7865 H   0  0  0  0  0  0  0  0  0  0  0  0
    6.5754    2.4560    0.2375 H   0  0  0  0  0  0  0  0  0  0  0  0
    7.9739    1.5803   -0.3883 H   0  0  0  0  0  0  0  0  0  0  0  0
    7.4685    3.1225   -1.0889 H   0  0  0  0  0  0  0  0  0  0  0  0
    9.6551    2.9786    4.2257 H   0  0  0  0  0  0  0  0  0  0  0  0
    9.1430    4.4161    3.4283 H   0  0  0  0  0  0  0  0  0  0  0  0
   10.6119    3.5698    2.9322 H   0  0  0  0  0  0  0  0  0  0  0  0
    7.2862    1.7556    6.2956 H   0  0  0  0  0  0  0  0  0  0  0  0
    6.3360    2.8329    5.3860 H   0  0  0  0  0  0  0  0  0  0  0  0
    8.0745    3.0230    5.3771 H   0  0  0  0  0  0  0  0  0  0  0  0
    6.4512   -1.4683    9.1552 H   0  0  0  0  0  0  0  0  0  0  0  0
    5.4096   -3.9816   10.8104 H   0  0  0  0  0  0  0  0  0  0  0  0
    2.7721   -4.8996    9.7055 H   0  0  0  0  0  0  0  0  0  0  0  0
    4.5525   -2.2434    3.1981 H   0  0  0  0  0  0  0  0  0  0  0  0
    3.5647   -2.7567    0.2466 H   0  0  0  0  0  0  0  0  0  0  0  0
    3.2210   -5.6495   -0.4505 H   0  0  0  0  0  0  0  0  0  0  0  0
  1  2  1  0  0  0  0
  1 56  1  0  0  0  0
  1 57  1  0  0  0  0
  1 58  1  0  0  0  0
  2  3  1  0  0  0  0
  2  7  1  0  0  0  0
  2 59  1  0  0  0  0
  3  4  1  0  0  0  0
  3 55  1  0  0  0  0
  3 60  1  0  0  0  0
  4  5  1  0  0  0  0
  4 54  1  0  0  0  0
  4 61  1  0  0  0  0
  5  6  1  0  0  0  0
  5 53  1  0  0  0  0
  5 62  1  0  0  0  0
  6  7  1  0  0  0  0
  6  8  1  0  0  0  0
  6 63  1  0  0  0  0
  8  9  1  0  0  0  0
  9 10  1  0  0  0  0
  9 64  1  0  0  0  0
  9 65  1  0  0  0  0
 10 11  1  0  0  0  0
 10 15  1  0  0  0  0
 10 66  1  0  0  0  0
 11 12  1  0  0  0  0
 11 52  1  0  0  0  0
 11 67  1  0  0  0  0
 12 13  1  0  0  0  0
 12 51  1  0  0  0  0
 12 68  1  0  0  0  0
 13 14  1  0  0  0  0
 13 50  1  0  0  0  0
 13 69  1  0  0  0  0
 14 15  1  0  0  0  0
 14 16  1  0  0  0  0
 14 70  1  0  0  0  0
 16 17  1  0  0  0  0
 17 18  1  0  0  0  0
 17 22  1  0  0  0  0
 17 71  1  0  0  0  0
 18 19  1  0  0  0  0
 18 72  1  0  0  0  0
 18 73  1  0  0  0  0
 19 20  1  0  0  0  0
 19 74  1  0  0  0  0
 19 75  1  0  0  0  0
 20 21  1  0  0  0  0
 20 29  1  0  0  0  0
 20 49  1  0  0  0  0
 21 22  1  0  0  0  0
 21 26  1  0  0  0  0
 21 76  1  0  0  0  0
 22 23  1  0  0  0  0
 22 24  1  0  0  0  0
 23 77  1  0  0  0  0
 23 78  1  0  0  0  0
 23 79  1  0  0  0  0
 24 25  1  0  0  0  0
 24 80  1  0  0  0  0
 24 81  1  0  0  0  0
 25 82  1  0  0  0  0
 26 27  1  0  0  0  0
 26 83  1  0  0  0  0
 26 84  1  0  0  0  0
 27 28  1  0  0  0  0
 27 85  1  0  0  0  0
 27 86  1  0  0  0  0
 28 29  1  0  0  0  0
 28 33  1  0  0  0  0
 28 48  1  0  0  0  0
 29 30  1  0  0  0  0
 29 87  1  0  0  0  0
 30 31  1  0  0  0  0
 30 88  1  0  0  0  0
 30 89  1  0  0  0  0
 31 32  2  0  0  0  0
 31 90  1  0  0  0  0
 32 33  1  0  0  0  0
 32 37  1  0  0  0  0
 33 34  1  0  0  0  0
 33 47  1  0  0  0  0
 34 35  1  0  0  0  0
 34 91  1  0  0  0  0
 34 92  1  0  0  0  0
 35 36  1  0  0  0  0
 35 93  1  0  0  0  0
 35 94  1  0  0  0  0
 36 37  1  0  0  0  0
 36 41  1  0  0  0  0
 36 44  1  0  0  0  0
 37 38  1  0  0  0  0
 37 95  1  0  0  0  0
 38 39  1  0  0  0  0
 38 96  1  0  0  0  0
 38 97  1  0  0  0  0
 39 40  1  0  0  0  0
 39 42  1  0  0  0  0
 39 43  1  0  0  0  0
 40 41  1  0  0  0  0
 40 98  1  0  0  0  0
 40 99  1  0  0  0  0
 41100  1  0  0  0  0
 41101  1  0  0  0  0
 42102  1  0  0  0  0
 42103  1  0  0  0  0
 42104  1  0  0  0  0
 43105  1  0  0  0  0
 43106  1  0  0  0  0
 43107  1  0  0  0  0
 44 45  2  0  0  0  0
 44 46  1  0  0  0  0
 46108  1  0  0  0  0
 47109  1  0  0  0  0
 47110  1  0  0  0  0
 47111  1  0  0  0  0
 48112  1  0  0  0  0
 48113  1  0  0  0  0
 48114  1  0  0  0  0
 49115  1  0  0  0  0
 49116  1  0  0  0  0
 49117  1  0  0  0  0
 50118  1  0  0  0  0
 51119  1  0  0  0  0
 52120  1  0  0  0  0
 53121  1  0  0  0  0
 54122  1  0  0  0  0
 55123  1  0  0  0  0
M  END
$$$$
