
 OpenBabel02242208133D

 78 85  0  0  1  0  0  0  0  0999 V2000
   -0.0098    1.4336    1.5124 C   0  0  0  0  0  0  0  0  0  0  0  0
    1.5216    0.9923    0.6303 C   0  0  3  0  0  0  0  0  0  0  0  0
    2.0546   -0.5455    0.3151 C   0  0  3  0  0  0  0  0  0  0  0  0
    1.9613   -1.1117   -1.1480 C   0  0  3  0  0  0  0  0  0  0  0  0
    2.5541   -0.1458   -2.1431 C   0  0  3  0  0  0  0  0  0  0  0  0
    1.9885    1.2677   -1.8823 C   0  0  3  0  0  0  0  0  0  0  0  0
    1.9175    1.8039   -0.5332 O   0  0  0  0  0  0  0  0  0  0  0  0
    2.7640    2.1463   -2.7112 O   0  0  0  0  0  0  0  0  0  0  0  0
    4.0018   -0.2072   -2.1830 O   0  0  0  0  0  0  0  0  0  0  0  0
    2.6217   -2.3918   -1.3260 O   0  0  0  0  0  0  0  0  0  0  0  0
    1.6363   -1.5809    1.2206 O   0  0  0  0  0  0  0  0  0  0  0  0
    2.6300   -2.4839    1.4989 C   0  0  0  0  0  0  0  0  0  0  0  0
    3.8013   -2.4535    1.1374 O   0  0  0  0  0  0  0  0  0  0  0  0
    2.2408   -3.4736    2.5094 C   0  0  0  0  0  0  0  0  0  0  0  0
    2.5577   -4.8166    2.2196 C   0  0  0  0  0  0  0  0  0  0  0  0
    2.3339   -5.7942    3.1782 C   0  0  0  0  0  0  0  0  0  0  0  0
    1.8385   -5.4404    4.4201 C   0  0  0  0  0  0  0  0  0  0  0  0
    1.6175   -4.1065    4.7330 C   0  0  0  0  0  0  0  0  0  0  0  0
    1.7886   -3.0775    3.7839 C   0  0  0  0  0  0  0  0  0  0  0  0
    1.4992   -1.6781    4.1633 C   0  0  0  0  0  0  0  0  0  0  0  0
    2.3904   -0.5992    3.9064 C   0  0  0  0  0  0  0  0  0  0  0  0
    2.1077    0.6999    4.2930 C   0  0  0  0  0  0  0  0  0  0  0  0
    1.0509    0.9127    5.1320 C   0  0  0  0  0  0  0  0  0  0  0  0
    0.1760   -0.1253    5.4482 C   0  0  0  0  0  0  0  0  0  0  0  0
    0.3129   -1.3749    4.8710 C   0  0  0  0  0  0  0  0  0  0  0  0
   -0.8653   -2.3177    5.0159 C   0  0  0  0  0  0  0  0  0  0  0  0
   -1.1031   -3.2118    4.2142 O   0  0  0  0  0  0  0  0  0  0  0  0
   -1.6892   -2.1343    6.1297 O   0  0  0  0  0  0  0  0  0  0  0  0
   -1.9180   -0.8137    6.5056 C   0  0  0  0  0  0  0  0  0  0  0  0
   -3.1389   -0.4503    7.0310 C   0  0  0  0  0  0  0  0  0  0  0  0
   -3.4817    0.8900    6.9739 C   0  0  0  0  0  0  0  0  0  0  0  0
   -2.5477    1.8456    6.5362 C   0  0  0  0  0  0  0  0  0  0  0  0
   -2.8136    3.2094    6.0884 C   0  0  0  0  0  0  0  0  0  0  0  0
   -3.4747    4.0188    7.0767 C   0  0  0  0  0  0  0  0  0  0  0  0
   -3.4208    5.3761    6.9987 C   0  0  0  0  0  0  0  0  0  0  0  0
   -2.6873    5.9443    5.9648 C   0  0  0  0  0  0  0  0  0  0  0  0
   -2.0428    5.1795    4.9008 C   0  0  0  0  0  0  0  0  0  0  0  0
   -2.0907    3.7585    4.8619 C   0  0  0  0  0  0  0  0  0  0  0  0
   -1.5019    2.6729    3.5878 C   0  0  0  0  0  0  0  0  0  0  0  0
   -2.2260    1.6738    3.4773 O   0  0  0  0  0  0  0  0  0  0  0  0
   -0.3026    2.6671    2.6847 O   0  0  0  0  0  0  0  0  0  0  0  0
   -2.5821    7.3175    6.0369 O   0  0  0  0  0  0  0  0  0  0  0  0
   -4.0164    6.1402    7.9751 O   0  0  0  0  0  0  0  0  0  0  0  0
   -4.0772    3.5722    8.2379 O   0  0  0  0  0  0  0  0  0  0  0  0
   -1.2252    1.4625    6.5236 C   0  0  0  0  0  0  0  0  0  0  0  0
   -0.9668    0.1545    6.2396 C   0  0  0  0  0  0  0  0  0  0  0  0
   -0.1123    2.4642    6.5601 C   0  0  0  0  0  0  0  0  0  0  0  0
   -0.1333    3.4276    7.2551 O   0  0  0  0  0  0  0  0  0  0  0  0
    0.9078    2.1964    5.6602 O   0  0  0  0  0  0  0  0  0  0  0  0
   -4.7425    1.2444    7.3858 O   0  0  0  0  0  0  0  0  0  0  0  0
   -4.0667   -1.3358    7.4891 O   0  0  0  0  0  0  0  0  0  0  0  0
    2.8809    1.7416    3.8763 O   0  0  0  0  0  0  0  0  0  0  0  0
    3.6064   -0.6940    3.2795 O   0  0  0  0  0  0  0  0  0  0  0  0
    1.2156   -3.8221    6.0190 O   0  0  0  0  0  0  0  0  0  0  0  0
    1.5753   -6.3847    5.3743 O   0  0  0  0  0  0  0  0  0  0  0  0
    2.6193   -7.1106    2.9632 O   0  0  0  0  0  0  0  0  0  0  0  0
   -0.3169    0.5355    2.0499 H   0  0  0  0  0  0  0  0  0  0  0  0
   -0.7156    1.7239    0.7302 H   0  0  0  0  0  0  0  0  0  0  0  0
    2.2431    1.3290    1.3803 H   0  0  0  0  0  0  0  0  0  0  0  0
    3.1415   -0.4173    0.4451 H   0  0  0  0  0  0  0  0  0  0  0  0
    0.9171   -1.3115   -1.4008 H   0  0  0  0  0  0  0  0  0  0  0  0
    2.2951   -0.4677   -3.1645 H   0  0  0  0  0  0  0  0  0  0  0  0
    0.9705    1.2768   -2.2796 H   0  0  0  0  0  0  0  0  0  0  0  0
    3.6071    1.6871   -2.9117 H   0  0  0  0  0  0  0  0  0  0  0  0
    4.3808   -0.0199   -1.3068 H   0  0  0  0  0  0  0  0  0  0  0  0
    3.4626   -2.2506   -1.8135 H   0  0  0  0  0  0  0  0  0  0  0  0
    2.9927   -5.0675    1.2551 H   0  0  0  0  0  0  0  0  0  0  0  0
   -1.5074    5.7610    4.1592 H   0  0  0  0  0  0  0  0  0  0  0  0
   -3.0339    7.5538    6.8841 H   0  0  0  0  0  0  0  0  0  0  0  0
   -4.3974    5.4831    8.6046 H   0  0  0  0  0  0  0  0  0  0  0  0
   -4.3998    2.6607    8.0921 H   0  0  0  0  0  0  0  0  0  0  0  0
   -5.1587    0.4071    7.6914 H   0  0  0  0  0  0  0  0  0  0  0  0
   -3.6705   -2.2261    7.4279 H   0  0  0  0  0  0  0  0  0  0  0  0
    3.5441    1.3592    3.2704 H   0  0  0  0  0  0  0  0  0  0  0  0
    3.9693   -1.5911    3.3837 H   0  0  0  0  0  0  0  0  0  0  0  0
    0.9834   -4.6956    6.4002 H   0  0  0  0  0  0  0  0  0  0  0  0
    1.7596   -7.2374    4.9299 H   0  0  0  0  0  0  0  0  0  0  0  0
    3.0713   -7.1938    2.1050 H   0  0  0  0  0  0  0  0  0  0  0  0
  1  2  1  0  0  0  0
  1 41  1  0  0  0  0
  1 57  1  0  0  0  0
  1 58  1  0  0  0  0
  2  3  1  0  0  0  0
  2  7  1  0  0  0  0
  2 59  1  0  0  0  0
  3  4  1  0  0  0  0
  3 11  1  0  0  0  0
  3 60  1  0  0  0  0
  4  5  1  0  0  0  0
  4 10  1  0  0  0  0
  4 61  1  0  0  0  0
  5  6  1  0  0  0  0
  5  9  1  0  0  0  0
  5 62  1  0  0  0  0
  6  7  1  0  0  0  0
  6  8  1  0  0  0  0
  6 63  1  0  0  0  0
  8 64  1  0  0  0  0
  9 65  1  0  0  0  0
 10 66  1  0  0  0  0
 11 12  1  0  0  0  0
 12 13  2  0  0  0  0
 12 14  1  0  0  0  0
 14 15  2  0  0  0  0
 14 19  1  0  0  0  0
 15 16  1  0  0  0  0
 15 67  1  0  0  0  0
 16 17  2  0  0  0  0
 16 56  1  0  0  0  0
 17 18  1  0  0  0  0
 17 55  1  0  0  0  0
 18 19  2  0  0  0  0
 18 54  1  0  0  0  0
 19 20  1  0  0  0  0
 20 21  2  0  0  0  0
 20 25  1  0  0  0  0
 21 22  1  0  0  0  0
 21 53  1  0  0  0  0
 22 23  2  0  0  0  0
 22 52  1  0  0  0  0
 23 24  1  0  0  0  0
 23 49  1  0  0  0  0
 24 25  2  0  0  0  0
 24 46  1  0  0  0  0
 25 26  1  0  0  0  0
 26 27  2  0  0  0  0
 26 28  1  0  0  0  0
 28 29  1  0  0  0  0
 29 30  2  0  0  0  0
 29 46  1  0  0  0  0
 30 31  1  0  0  0  0
 30 51  1  0  0  0  0
 31 32  2  0  0  0  0
 31 50  1  0  0  0  0
 32 33  1  0  0  0  0
 32 45  1  0  0  0  0
 33 34  2  0  0  0  0
 33 38  1  0  0  0  0
 34 35  1  0  0  0  0
 34 44  1  0  0  0  0
 35 36  2  0  0  0  0
 35 43  1  0  0  0  0
 36 37  1  0  0  0  0
 36 42  1  0  0  0  0
 37 38  2  0  0  0  0
 37 68  1  0  0  0  0
 38 39  1  0  0  0  0
 39 40  2  0  0  0  0
 39 41  1  0  0  0  0
 42 69  1  0  0  0  0
 43 70  1  0  0  0  0
 44 71  1  0  0  0  0
 45 46  2  0  0  0  0
 45 47  1  0  0  0  0
 47 48  2  0  0  0  0
 47 49  1  0  0  0  0
 50 72  1  0  0  0  0
 51 73  1  0  0  0  0
 52 74  1  0  0  0  0
 53 75  1  0  0  0  0
 54 76  1  0  0  0  0
 55 77  1  0  0  0  0
 56 78  1  0  0  0  0
M  END
$$$$
