
 OpenBabel02242208173D

141148  0  0  1  0  0  0  0  0999 V2000
    2.0394    6.7222    4.5832 C   0  0  0  0  0  0  0  0  0  0  0  0
    0.9951    5.8532    5.2853 C   0  0  3  0  0  0  0  0  0  0  0  0
    1.3925    4.4827    5.8398 C   0  0  3  0  0  0  0  0  0  0  0  0
    0.8849    3.9805    7.2226 C   0  0  3  0  0  0  0  0  0  0  0  0
    0.3049    5.2419    7.8859 C   0  0  3  0  0  0  0  0  0  0  0  0
   -0.6411    6.0476    6.9698 C   0  0  3  0  0  0  0  0  0  0  0  0
    0.3296    6.7198    6.1802 O   0  0  0  0  0  0  0  0  0  0  0  0
   -1.6251    5.4980    6.1002 O   0  0  0  0  0  0  0  0  0  0  0  0
   -2.3774    6.4552    5.2403 C   0  0  3  0  0  0  0  0  0  0  0  0
   -3.4098    7.3512    5.9436 C   0  0  3  0  0  0  0  0  0  0  0  0
   -2.7778    8.4591    6.8018 C   0  0  3  0  0  0  0  0  0  0  0  0
   -1.3819    8.8684    6.3260 C   0  0  0  0  0  0  0  0  0  0  0  0
   -1.1612    8.6763    4.9295 O   0  0  0  0  0  0  0  0  0  0  0  0
   -1.5408    7.4313    4.3312 C   0  0  3  0  0  0  0  0  0  0  0  0
   -2.1374    7.6572    3.0328 O   0  0  0  0  0  0  0  0  0  0  0  0
   -1.2423    8.2965    2.0732 C   0  0  3  0  0  0  0  0  0  0  0  0
   -0.0071    7.4591    1.5792 C   0  0  0  0  0  0  0  0  0  0  0  0
   -0.2096    6.5615    0.3053 C   0  0  0  0  0  0  0  0  0  0  0  0
   -1.6716    6.0781    0.2003 C   0  0  3  0  0  0  0  0  0  0  0  0
   -2.5677    7.3989    0.0517 C   0  0  3  0  0  0  0  0  0  0  0  0
   -2.0682    8.7167    0.8387 C   0  0  3  0  0  0  0  0  0  0  0  0
   -3.2210    9.6563    1.2702 C   0  0  0  0  0  0  0  0  0  0  0  0
   -1.1512    9.6209   -0.0856 C   0  0  0  0  0  0  0  0  0  0  0  0
   -0.6808   10.7985    0.5772 O   0  0  0  0  0  0  0  0  0  0  0  0
   -4.0515    6.9774    0.1688 C   0  0  0  0  0  0  0  0  0  0  0  0
   -4.4741    5.9948   -0.9679 C   0  0  0  0  0  0  0  0  0  0  0  0
   -3.6418    4.6712   -1.0181 C   0  0  3  0  0  0  0  0  0  0  0  0
   -2.0964    5.1646   -1.0541 C   0  0  3  0  0  0  0  0  0  0  0  0
   -1.0841    4.0718   -1.4345 C   0  0  0  0  0  0  0  0  0  0  0  0
   -1.6526    2.7909   -1.9571 C   0  0  0  0  0  0  0  0  0  0  0  0
   -2.9481    2.5230   -2.2407 C   0  0  0  0  0  0  0  0  0  0  0  0
   -3.9573    3.6961   -2.2894 C   0  0  3  0  0  0  0  0  0  0  0  0
   -5.4454    3.2089   -2.3401 C   0  0  0  0  0  0  0  0  0  0  0  0
   -5.7439    1.7814   -1.8725 C   0  0  0  0  0  0  0  0  0  0  0  0
   -4.8732    0.6942   -2.5340 C   0  0  3  0  0  0  0  0  0  0  0  0
   -3.3612    1.0199   -2.2849 C   0  0  3  0  0  0  0  0  0  0  0  0
   -2.8055    0.3348   -0.9815 C   0  0  0  0  0  0  0  0  0  0  0  0
   -3.1941   -1.1291   -0.7440 C   0  0  0  0  0  0  0  0  0  0  0  0
   -4.7208   -1.1688   -0.6767 C   0  0  0  0  0  0  0  0  0  0  0  0
   -5.3594   -0.6966   -1.9805 C   0  0  0  0  0  0  0  0  0  0  0  0
   -2.5998   -1.6105    0.5971 C   0  0  0  0  0  0  0  0  0  0  0  0
   -2.6249   -2.0451   -1.8400 C   0  0  0  0  0  0  0  0  0  0  0  0
   -5.1647    0.6256   -4.0356 C   0  0  0  0  0  0  0  0  0  0  0  0
   -6.0909    1.2977   -4.6121 O   0  0  0  0  0  0  0  0  0  0  0  0
   -4.4669   -0.2475   -4.7672 O   0  0  0  0  0  0  0  0  0  0  0  0
   -3.7549    4.4694   -3.6295 C   0  0  0  0  0  0  0  0  0  0  0  0
   -4.0808    3.8470    0.2299 C   0  0  0  0  0  0  0  0  0  0  0  0
   -1.8264    5.2047    1.4807 C   0  0  0  0  0  0  0  0  0  0  0  0
   -3.6104    9.6267    6.7198 O   0  0  0  0  0  0  0  0  0  0  0  0
   -4.3491    6.5814    6.7066 O   0  0  0  0  0  0  0  0  0  0  0  0
   -0.0746    5.2183    9.2606 O   0  0  0  0  0  0  0  0  0  0  0  0
   -0.0360    2.8672    7.0733 O   0  0  0  0  0  0  0  0  0  0  0  0
    0.4540    1.4969    6.8837 C   0  0  3  0  0  0  0  0  0  0  0  0
    0.9429    1.0685    5.4378 C   0  0  3  0  0  0  0  0  0  0  0  0
    2.4073    1.5100    5.2314 C   0  0  3  0  0  0  0  0  0  0  0  0
    3.2742    1.2763    6.4799 C   0  0  3  0  0  0  0  0  0  0  0  0
    2.5197    0.3781    7.4550 C   0  0  0  0  0  0  0  0  0  0  0  0
    1.3440    1.0569    7.9202 O   0  0  0  0  0  0  0  0  0  0  0  0
    4.5771    0.7966    6.2668 O   0  0  0  0  0  0  0  0  0  0  0  0
    2.9156    1.3512    3.8907 O   0  0  0  0  0  0  0  0  0  0  0  0
    3.7756    0.3968    3.5066 C   0  0  0  0  0  0  0  0  0  0  0  0
    4.9077    0.1895    3.9925 O   0  0  0  0  0  0  0  0  0  0  0  0
    3.2446   -0.3058    2.3424 C   0  0  0  0  0  0  0  0  0  0  0  0
    0.0881    1.4904    4.3669 O   0  0  0  0  0  0  0  0  0  0  0  0
    2.8147    4.4087    5.7947 O   0  0  0  0  0  0  0  0  0  0  0  0
    2.3141    6.2942    3.6157 H   0  0  0  0  0  0  0  0  0  0  0  0
    2.9413    6.8729    5.1826 H   0  0  0  0  0  0  0  0  0  0  0  0
    1.6308    7.7260    4.3994 H   0  0  0  0  0  0  0  0  0  0  0  0
    0.2970    5.5542    4.5055 H   0  0  0  0  0  0  0  0  0  0  0  0
    0.9445    3.8023    5.1065 H   0  0  0  0  0  0  0  0  0  0  0  0
    1.7023    3.6441    7.8708 H   0  0  0  0  0  0  0  0  0  0  0  0
    1.2059    5.8848    7.9541 H   0  0  0  0  0  0  0  0  0  0  0  0
   -1.1715    6.7080    7.6523 H   0  0  0  0  0  0  0  0  0  0  0  0
   -2.9410    5.7704    4.5905 H   0  0  0  0  0  0  0  0  0  0  0  0
   -4.0092    7.8463    5.1671 H   0  0  0  0  0  0  0  0  0  0  0  0
   -2.7678    8.1693    7.8612 H   0  0  0  0  0  0  0  0  0  0  0  0
   -0.6089    8.4046    6.9348 H   0  0  0  0  0  0  0  0  0  0  0  0
   -1.1643    9.9160    6.5484 H   0  0  0  0  0  0  0  0  0  0  0  0
   -0.6563    6.9193    4.0484 H   0  0  0  0  0  0  0  0  0  0  0  0
   -0.8548    9.1946    2.5715 H   0  0  0  0  0  0  0  0  0  0  0  0
    0.3701    6.8208    2.3762 H   0  0  0  0  0  0  0  0  0  0  0  0
    0.8219    8.1480    1.3681 H   0  0  0  0  0  0  0  0  0  0  0  0
    0.4842    5.7131    0.3900 H   0  0  0  0  0  0  0  0  0  0  0  0
    0.1055    7.0821   -0.6044 H   0  0  0  0  0  0  0  0  0  0  0  0
   -2.4673    7.7178   -0.9987 H   0  0  0  0  0  0  0  0  0  0  0  0
   -3.9952    9.1473    1.8477 H   0  0  0  0  0  0  0  0  0  0  0  0
   -3.6922   10.1257    0.3974 H   0  0  0  0  0  0  0  0  0  0  0  0
   -2.8445   10.4743    1.8994 H   0  0  0  0  0  0  0  0  0  0  0  0
   -1.7178    9.9691   -0.9551 H   0  0  0  0  0  0  0  0  0  0  0  0
   -0.2728    9.1091   -0.4801 H   0  0  0  0  0  0  0  0  0  0  0  0
    0.1685   10.6040    1.0099 H   0  0  0  0  0  0  0  0  0  0  0  0
   -4.7157    7.8435    0.1138 H   0  0  0  0  0  0  0  0  0  0  0  0
   -4.2374    6.5266    1.1470 H   0  0  0  0  0  0  0  0  0  0  0  0
   -4.3792    6.5304   -1.9198 H   0  0  0  0  0  0  0  0  0  0  0  0
   -5.5393    5.7720   -0.8451 H   0  0  0  0  0  0  0  0  0  0  0  0
   -2.0372    5.8490   -1.9156 H   0  0  0  0  0  0  0  0  0  0  0  0
   -0.4698    3.8116   -0.5664 H   0  0  0  0  0  0  0  0  0  0  0  0
   -0.3854    4.4646   -2.1860 H   0  0  0  0  0  0  0  0  0  0  0  0
   -0.9194    1.9871   -1.9730 H   0  0  0  0  0  0  0  0  0  0  0  0
   -5.8252    3.3001   -3.3662 H   0  0  0  0  0  0  0  0  0  0  0  0
   -6.0982    3.8925   -1.7870 H   0  0  0  0  0  0  0  0  0  0  0  0
   -6.8087    1.5854   -2.0910 H   0  0  0  0  0  0  0  0  0  0  0  0
   -5.6621    1.7022   -0.7853 H   0  0  0  0  0  0  0  0  0  0  0  0
   -2.7863    0.5938   -3.1148 H   0  0  0  0  0  0  0  0  0  0  0  0
   -3.1296    0.9176   -0.1098 H   0  0  0  0  0  0  0  0  0  0  0  0
   -1.7099    0.3738   -0.9734 H   0  0  0  0  0  0  0  0  0  0  0  0
   -5.0761   -0.5398    0.1513 H   0  0  0  0  0  0  0  0  0  0  0  0
   -5.0640   -2.1862   -0.4491 H   0  0  0  0  0  0  0  0  0  0  0  0
   -6.4484   -0.6777   -1.8317 H   0  0  0  0  0  0  0  0  0  0  0  0
   -5.2087   -1.4901   -2.7211 H   0  0  0  0  0  0  0  0  0  0  0  0
   -2.9985   -1.0461    1.4464 H   0  0  0  0  0  0  0  0  0  0  0  0
   -1.5085   -1.4981    0.6073 H   0  0  0  0  0  0  0  0  0  0  0  0
   -2.8200   -2.6711    0.7670 H   0  0  0  0  0  0  0  0  0  0  0  0
   -2.9129   -1.7342   -2.8420 H   0  0  0  0  0  0  0  0  0  0  0  0
   -2.9701   -3.0763   -1.7090 H   0  0  0  0  0  0  0  0  0  0  0  0
   -1.5292   -2.0509   -1.8182 H   0  0  0  0  0  0  0  0  0  0  0  0
   -3.8405   -0.7932   -4.2526 H   0  0  0  0  0  0  0  0  0  0  0  0
   -2.7900    4.9759   -3.7029 H   0  0  0  0  0  0  0  0  0  0  0  0
   -4.5338    5.2303   -3.7669 H   0  0  0  0  0  0  0  0  0  0  0  0
   -3.8201    3.7938   -4.4926 H   0  0  0  0  0  0  0  0  0  0  0  0
   -4.1565    4.4254    1.1471 H   0  0  0  0  0  0  0  0  0  0  0  0
   -3.4349    2.9881    0.4141 H   0  0  0  0  0  0  0  0  0  0  0  0
   -5.0974    3.4665    0.1224 H   0  0  0  0  0  0  0  0  0  0  0  0
   -0.9383    5.1872    2.1191 H   0  0  0  0  0  0  0  0  0  0  0  0
   -1.9162    4.1458    1.2365 H   0  0  0  0  0  0  0  0  0  0  0  0
   -2.6589    5.5021    2.1123 H   0  0  0  0  0  0  0  0  0  0  0  0
   -3.6785    9.9867    7.6202 H   0  0  0  0  0  0  0  0  0  0  0  0
   -4.9843    6.2043    6.0695 H   0  0  0  0  0  0  0  0  0  0  0  0
    0.6417    5.6912    9.7412 H   0  0  0  0  0  0  0  0  0  0  0  0
   -0.4609    0.9096    7.0413 H   0  0  0  0  0  0  0  0  0  0  0  0
    0.9554   -0.0272    5.3781 H   0  0  0  0  0  0  0  0  0  0  0  0
    2.3004    2.5548    5.1837 H   0  0  0  0  0  0  0  0  0  0  0  0
    3.4042    2.2372    6.9868 H   0  0  0  0  0  0  0  0  0  0  0  0
    3.1585    0.1398    8.3103 H   0  0  0  0  0  0  0  0  0  0  0  0
    2.2642   -0.5968    7.0097 H   0  0  0  0  0  0  0  0  0  0  0  0
    4.9280    1.2189    5.4548 H   0  0  0  0  0  0  0  0  0  0  0  0
    3.9595   -0.2165    1.5188 H   0  0  0  0  0  0  0  0  0  0  0  0
    2.2873    0.1296    2.0299 H   0  0  0  0  0  0  0  0  0  0  0  0
    3.0882   -1.3525    2.6236 H   0  0  0  0  0  0  0  0  0  0  0  0
   -0.6778    1.9659    4.7411 H   0  0  0  0  0  0  0  0  0  0  0  0
    3.0511    4.4132    4.8464 H   0  0  0  0  0  0  0  0  0  0  0  0
  1  2  1  0  0  0  0
  1 66  1  0  0  0  0
  1 67  1  0  0  0  0
  1 68  1  0  0  0  0
  2  3  1  0  0  0  0
  2  7  1  0  0  0  0
  2 69  1  0  0  0  0
  3  4  1  0  0  0  0
  3 65  1  0  0  0  0
  3 70  1  0  0  0  0
  4  5  1  0  0  0  0
  4 52  1  0  0  0  0
  4 71  1  0  0  0  0
  5  6  1  0  0  0  0
  5 51  1  0  0  0  0
  5 72  1  0  0  0  0
  6  7  1  0  0  0  0
  6  8  1  0  0  0  0
  6 73  1  0  0  0  0
  8  9  1  0  0  0  0
  9 10  1  0  0  0  0
  9 14  1  0  0  0  0
  9 74  1  0  0  0  0
 10 11  1  0  0  0  0
 10 50  1  0  0  0  0
 10 75  1  0  0  0  0
 11 12  1  0  0  0  0
 11 49  1  0  0  0  0
 11 76  1  0  0  0  0
 12 13  1  0  0  0  0
 12 77  1  0  0  0  0
 12 78  1  0  0  0  0
 13 14  1  0  0  0  0
 14 15  1  0  0  0  0
 14 79  1  0  0  0  0
 15 16  1  0  0  0  0
 16 17  1  0  0  0  0
 16 21  1  0  0  0  0
 16 80  1  0  0  0  0
 17 18  1  0  0  0  0
 17 81  1  0  0  0  0
 17 82  1  0  0  0  0
 18 19  1  0  0  0  0
 18 83  1  0  0  0  0
 18 84  1  0  0  0  0
 19 20  1  0  0  0  0
 19 28  1  0  0  0  0
 19 48  1  0  0  0  0
 20 21  1  0  0  0  0
 20 25  1  0  0  0  0
 20 85  1  0  0  0  0
 21 22  1  0  0  0  0
 21 23  1  0  0  0  0
 22 86  1  0  0  0  0
 22 87  1  0  0  0  0
 22 88  1  0  0  0  0
 23 24  1  0  0  0  0
 23 89  1  0  0  0  0
 23 90  1  0  0  0  0
 24 91  1  0  0  0  0
 25 26  1  0  0  0  0
 25 92  1  0  0  0  0
 25 93  1  0  0  0  0
 26 27  1  0  0  0  0
 26 94  1  0  0  0  0
 26 95  1  0  0  0  0
 27 28  1  0  0  0  0
 27 32  1  0  0  0  0
 27 47  1  0  0  0  0
 28 29  1  0  0  0  0
 28 96  1  0  0  0  0
 29 30  1  0  0  0  0
 29 97  1  0  0  0  0
 29 98  1  0  0  0  0
 30 31  2  0  0  0  0
 30 99  1  0  0  0  0
 31 32  1  0  0  0  0
 31 36  1  0  0  0  0
 32 33  1  0  0  0  0
 32 46  1  0  0  0  0
 33 34  1  0  0  0  0
 33100  1  0  0  0  0
 33101  1  0  0  0  0
 34 35  1  0  0  0  0
 34102  1  0  0  0  0
 34103  1  0  0  0  0
 35 36  1  0  0  0  0
 35 40  1  0  0  0  0
 35 43  1  0  0  0  0
 36 37  1  0  0  0  0
 36104  1  0  0  0  0
 37 38  1  0  0  0  0
 37105  1  0  0  0  0
 37106  1  0  0  0  0
 38 39  1  0  0  0  0
 38 41  1  0  0  0  0
 38 42  1  0  0  0  0
 39 40  1  0  0  0  0
 39107  1  0  0  0  0
 39108  1  0  0  0  0
 40109  1  0  0  0  0
 40110  1  0  0  0  0
 41111  1  0  0  0  0
 41112  1  0  0  0  0
 41113  1  0  0  0  0
 42114  1  0  0  0  0
 42115  1  0  0  0  0
 42116  1  0  0  0  0
 43 44  2  0  0  0  0
 43 45  1  0  0  0  0
 45117  1  0  0  0  0
 46118  1  0  0  0  0
 46119  1  0  0  0  0
 46120  1  0  0  0  0
 47121  1  0  0  0  0
 47122  1  0  0  0  0
 47123  1  0  0  0  0
 48124  1  0  0  0  0
 48125  1  0  0  0  0
 48126  1  0  0  0  0
 49127  1  0  0  0  0
 50128  1  0  0  0  0
 51129  1  0  0  0  0
 52 53  1  0  0  0  0
 53 54  1  0  0  0  0
 53 58  1  0  0  0  0
 53130  1  0  0  0  0
 54 55  1  0  0  0  0
 54 64  1  0  0  0  0
 54131  1  0  0  0  0
 55 56  1  0  0  0  0
 55 60  1  0  0  0  0
 55132  1  0  0  0  0
 56 57  1  0  0  0  0
 56 59  1  0  0  0  0
 56133  1  0  0  0  0
 57 58  1  0  0  0  0
 57134  1  0  0  0  0
 57135  1  0  0  0  0
 59136  1  0  0  0  0
 60 61  1  0  0  0  0
 61 62  2  0  0  0  0
 61 63  1  0  0  0  0
 63137  1  0  0  0  0
 63138  1  0  0  0  0
 63139  1  0  0  0  0
 64140  1  0  0  0  0
 65141  1  0  0  0  0
M  END
$$$$
