
 OpenBabel02222212133D

 85 89  0  0  1  0  0  0  0  0999 V2000
   12.2079  -12.1029   16.4171 C   0  0  0  0  0  0  0  0  0  0  0  0
   12.7279  -10.8981   15.6492 C   0  0  0  0  0  0  0  0  0  0  0  0
   11.5873  -10.1092   15.0061 C   0  0  0  0  0  0  0  0  0  0  0  0
   12.0821   -8.8697   14.2662 C   0  0  0  0  0  0  0  0  0  0  0  0
   12.9979   -9.2430   13.2402 O   0  0  0  0  0  0  0  0  0  0  0  0
   13.5479   -8.2114   12.5301 C   0  0  0  0  0  0  0  0  0  0  0  0
   14.5207   -8.5825   11.6104 C   0  0  0  0  0  0  0  0  0  0  0  0
   15.1222   -7.6250   10.7882 C   0  0  0  0  0  0  0  0  0  0  0  0
   14.7382   -6.2867   10.8426 C   0  0  0  0  0  0  0  0  0  0  0  0
   13.7913   -5.9019   11.7987 C   0  0  0  0  0  0  0  0  0  0  0  0
   13.1984   -6.8681   12.6365 C   0  0  0  0  0  0  0  0  0  0  0  0
   15.2148   -5.2939    9.9584 N   0  0  0  0  0  0  0  0  0  0  0  0
   16.0441   -5.5212    8.8719 C   0  0  0  0  0  0  0  0  0  0  0  0
   16.5455   -6.5962    8.5614 O   0  0  0  0  0  0  0  0  0  0  0  0
   16.3058   -4.2813    8.0387 C   0  0  0  0  0  0  0  0  0  0  0  0
   17.2202   -4.6483    6.8722 C   0  0  0  0  0  0  0  0  0  0  0  0
   17.5453   -3.4521    6.0132 C   0  0  0  0  0  0  0  0  0  0  0  0
   16.6727   -2.7307    5.5397 O   0  0  0  0  0  0  0  0  0  0  0  0
   18.8859   -3.2792    5.7771 N   0  0  0  0  0  0  0  0  0  0  0  0
   19.3919   -2.2626    4.8664 C   0  0  3  0  0  0  0  0  0  0  0  0
   19.7200   -0.9909    5.6263 C   0  0  0  0  0  0  0  0  0  0  0  0
   19.0082    0.1832    5.3452 C   0  0  0  0  0  0  0  0  0  0  0  0
   19.4502    1.4205    5.8290 C   0  0  0  0  0  0  0  0  0  0  0  0
   18.8214    2.6109    5.4385 C   0  0  0  0  0  0  0  0  0  0  0  0
   19.3319    3.8456    5.8375 C   0  0  0  0  0  0  0  0  0  0  0  0
   20.4551    3.9021    6.6580 C   0  0  0  0  0  0  0  0  0  0  0  0
   21.0671    2.7237    7.0886 C   0  0  0  0  0  0  0  0  0  0  0  0
   20.5827    1.4743    6.6733 C   0  0  0  0  0  0  0  0  0  0  0  0
   21.2180    0.2813    7.0483 C   0  0  0  0  0  0  0  0  0  0  0  0
   20.7950   -0.9404    6.5257 C   0  0  0  0  0  0  0  0  0  0  0  0
   20.6568   -2.7686    4.0926 C   0  0  0  0  0  0  0  0  0  0  0  0
   21.1513   -3.8782    4.3006 O   0  0  0  0  0  0  0  0  0  0  0  0
   21.2091   -1.8745    3.1920 N   0  0  0  0  0  0  0  0  0  0  0  0
   22.4678   -2.1358    2.4933 C   0  0  3  0  0  0  0  0  0  0  0  0
   22.2189   -2.7095    1.1036 C   0  0  0  0  0  0  0  0  0  0  0  0
   22.0832   -1.9030   -0.0403 C   0  0  0  0  0  0  0  0  0  0  0  0
   21.8364   -2.4508   -1.3117 C   0  0  0  0  0  0  0  0  0  0  0  0
   21.7312   -1.6348   -2.4507 C   0  0  0  0  0  0  0  0  0  0  0  0
   21.4686   -2.1869   -3.7048 C   0  0  0  0  0  0  0  0  0  0  0  0
   21.3030   -3.5617   -3.8366 C   0  0  0  0  0  0  0  0  0  0  0  0
   21.4141   -4.3879   -2.7149 C   0  0  0  0  0  0  0  0  0  0  0  0
   21.6900   -3.8488   -1.4471 C   0  0  0  0  0  0  0  0  0  0  0  0
   21.8192   -4.6575   -0.3095 C   0  0  0  0  0  0  0  0  0  0  0  0
   22.0838   -4.0977    0.9453 C   0  0  0  0  0  0  0  0  0  0  0  0
   23.2945   -0.8208    2.4875 C   0  0  0  0  0  0  0  0  0  0  0  0
   22.8842    0.2498    2.0393 O   0  0  0  0  0  0  0  0  0  0  0  0
   24.5298   -0.8664    3.0747 N   0  0  0  0  0  0  0  0  0  0  0  0
   13.0250  -12.5814   16.9659 H   0  0  0  0  0  0  0  0  0  0  0  0
   11.7775  -12.8437   15.7356 H   0  0  0  0  0  0  0  0  0  0  0  0
   11.4383  -11.8115   17.1389 H   0  0  0  0  0  0  0  0  0  0  0  0
   13.4337  -11.2414   14.8843 H   0  0  0  0  0  0  0  0  0  0  0  0
   13.2827  -10.2473   16.3346 H   0  0  0  0  0  0  0  0  0  0  0  0
   10.8799   -9.7865   15.7792 H   0  0  0  0  0  0  0  0  0  0  0  0
   11.0442  -10.7597   14.3108 H   0  0  0  0  0  0  0  0  0  0  0  0
   12.5785   -8.2017   14.9783 H   0  0  0  0  0  0  0  0  0  0  0  0
   11.2142   -8.3663   13.8230 H   0  0  0  0  0  0  0  0  0  0  0  0
   14.8184   -9.6225   11.5158 H   0  0  0  0  0  0  0  0  0  0  0  0
   15.8862   -7.9770   10.1075 H   0  0  0  0  0  0  0  0  0  0  0  0
   13.4812   -4.8679   11.9049 H   0  0  0  0  0  0  0  0  0  0  0  0
   12.4572   -6.5193   13.3507 H   0  0  0  0  0  0  0  0  0  0  0  0
   14.8496   -4.3518   10.0746 H   0  0  0  0  0  0  0  0  0  0  0  0
   16.7806   -3.5255    8.6734 H   0  0  0  0  0  0  0  0  0  0  0  0
   15.3504   -3.8887    7.6772 H   0  0  0  0  0  0  0  0  0  0  0  0
   16.7351   -5.3923    6.2253 H   0  0  0  0  0  0  0  0  0  0  0  0
   18.1413   -5.1142    7.2435 H   0  0  0  0  0  0  0  0  0  0  0  0
   19.5700   -3.8383    6.2707 H   0  0  0  0  0  0  0  0  0  0  0  0
   18.6222   -2.0692    4.1084 H   0  0  0  0  0  0  0  0  0  0  0  0
   18.1360    0.1373    4.6938 H   0  0  0  0  0  0  0  0  0  0  0  0
   17.9498    2.5857    4.7880 H   0  0  0  0  0  0  0  0  0  0  0  0
   18.8611    4.7622    5.4926 H   0  0  0  0  0  0  0  0  0  0  0  0
   20.8624    4.8649    6.9545 H   0  0  0  0  0  0  0  0  0  0  0  0
   21.9467    2.7897    7.7245 H   0  0  0  0  0  0  0  0  0  0  0  0
   22.0796    0.3008    7.7118 H   0  0  0  0  0  0  0  0  0  0  0  0
   21.3432   -1.8443    6.7849 H   0  0  0  0  0  0  0  0  0  0  0  0
   20.8279   -0.9373    3.1040 H   0  0  0  0  0  0  0  0  0  0  0  0
   23.0409   -2.8711    3.0722 H   0  0  0  0  0  0  0  0  0  0  0  0
   22.1684   -0.8212    0.0395 H   0  0  0  0  0  0  0  0  0  0  0  0
   21.8570   -0.5571   -2.3664 H   0  0  0  0  0  0  0  0  0  0  0  0
   21.3906   -1.5418   -4.5763 H   0  0  0  0  0  0  0  0  0  0  0  0
   21.0888   -3.9936   -4.8099 H   0  0  0  0  0  0  0  0  0  0  0  0
   21.2806   -5.4602   -2.8374 H   0  0  0  0  0  0  0  0  0  0  0  0
   21.7128   -5.7374   -0.3922 H   0  0  0  0  0  0  0  0  0  0  0  0
   22.1751   -4.7602    1.8055 H   0  0  0  0  0  0  0  0  0  0  0  0
   24.7902   -1.5984    3.7198 H   0  0  0  0  0  0  0  0  0  0  0  0
   25.0294    0.0129    3.1336 H   0  0  0  0  0  0  0  0  0  0  0  0
  1  2  1  0  0  0  0
  1 48  1  0  0  0  0
  1 49  1  0  0  0  0
  1 50  1  0  0  0  0
  2  3  1  0  0  0  0
  2 51  1  0  0  0  0
  2 52  1  0  0  0  0
  3  4  1  0  0  0  0
  3 53  1  0  0  0  0
  3 54  1  0  0  0  0
  4  5  1  0  0  0  0
  4 55  1  0  0  0  0
  4 56  1  0  0  0  0
  5  6  1  0  0  0  0
  6  7  2  0  0  0  0
  6 11  1  0  0  0  0
  7  8  1  0  0  0  0
  7 57  1  0  0  0  0
  8  9  2  0  0  0  0
  8 58  1  0  0  0  0
  9 10  1  0  0  0  0
  9 12  1  0  0  0  0
 10 11  2  0  0  0  0
 10 59  1  0  0  0  0
 11 60  1  0  0  0  0
 12 13  1  0  0  0  0
 12 61  1  0  0  0  0
 13 14  2  0  0  0  0
 13 15  1  0  0  0  0
 15 16  1  0  0  0  0
 15 62  1  0  0  0  0
 15 63  1  0  0  0  0
 16 17  1  0  0  0  0
 16 64  1  0  0  0  0
 16 65  1  0  0  0  0
 17 18  2  0  0  0  0
 17 19  1  0  0  0  0
 19 20  1  0  0  0  0
 19 66  1  0  0  0  0
 20 21  1  0  0  0  0
 20 31  1  0  0  0  0
 20 67  1  0  0  0  0
 21 22  2  0  0  0  0
 21 30  1  0  0  0  0
 22 23  1  0  0  0  0
 22 68  1  0  0  0  0
 23 24  2  0  0  0  0
 23 28  1  0  0  0  0
 24 25  1  0  0  0  0
 24 69  1  0  0  0  0
 25 26  2  0  0  0  0
 25 70  1  0  0  0  0
 26 27  1  0  0  0  0
 26 71  1  0  0  0  0
 27 28  2  0  0  0  0
 27 72  1  0  0  0  0
 28 29  1  0  0  0  0
 29 30  2  0  0  0  0
 29 73  1  0  0  0  0
 30 74  1  0  0  0  0
 31 32  2  0  0  0  0
 31 33  1  0  0  0  0
 33 34  1  0  0  0  0
 33 75  1  0  0  0  0
 34 35  1  0  0  0  0
 34 45  1  0  0  0  0
 34 76  1  0  0  0  0
 35 36  2  0  0  0  0
 35 44  1  0  0  0  0
 36 37  1  0  0  0  0
 36 77  1  0  0  0  0
 37 38  2  0  0  0  0
 37 42  1  0  0  0  0
 38 39  1  0  0  0  0
 38 78  1  0  0  0  0
 39 40  2  0  0  0  0
 39 79  1  0  0  0  0
 40 41  1  0  0  0  0
 40 80  1  0  0  0  0
 41 42  2  0  0  0  0
 41 81  1  0  0  0  0
 42 43  1  0  0  0  0
 43 44  2  0  0  0  0
 43 82  1  0  0  0  0
 44 83  1  0  0  0  0
 45 46  2  0  0  0  0
 45 47  1  0  0  0  0
 47 84  1  0  0  0  0
 47 85  1  0  0  0  0
M  END
$$$$
