
 OpenBabel02222212113D

 88 90  0  0  1  0  0  0  0  0999 V2000
    7.7095    7.3218   -7.3232 C   0  0  0  0  0  0  0  0  0  0  0  0
    8.0453    7.1873   -8.8019 C   0  0  0  0  0  0  0  0  0  0  0  0
    8.9004    5.9477   -9.0551 C   0  0  0  0  0  0  0  0  0  0  0  0
    9.2554    5.7795  -10.5342 C   0  0  0  0  0  0  0  0  0  0  0  0
   10.1156    4.5376  -10.8019 C   0  0  0  0  0  0  0  0  0  0  0  0
    9.4250    3.2292  -10.4148 C   0  0  0  0  0  0  0  0  0  0  0  0
   10.2935    2.0082  -10.7011 C   0  0  0  0  0  0  0  0  0  0  0  0
    9.5514    0.8542  -10.2996 O   0  0  0  0  0  0  0  0  0  0  0  0
   10.1396   -0.3509  -10.5613 C   0  0  0  0  0  0  0  0  0  0  0  0
    9.2571   -1.4147  -10.7529 C   0  0  0  0  0  0  0  0  0  0  0  0
    9.7439   -2.6966  -11.0031 C   0  0  0  0  0  0  0  0  0  0  0  0
   11.1201   -2.9166  -11.0618 C   0  0  0  0  0  0  0  0  0  0  0  0
   11.6483   -4.1915  -11.3108 N   0  0  0  0  0  0  0  0  0  0  0  0
   11.1659   -5.3184  -10.6770 C   0  0  0  0  0  0  0  0  0  0  0  0
   10.2818   -5.3494   -9.8245 O   0  0  0  0  0  0  0  0  0  0  0  0
   11.8628   -6.5787  -11.1046 C   0  0  0  0  0  0  0  0  0  0  0  0
   11.0856   -7.2880  -12.2022 C   0  0  0  0  0  0  0  0  0  0  0  0
   11.7544   -8.5765  -12.6493 C   0  0  0  0  0  0  0  0  0  0  0  0
   11.6911   -8.9610  -13.8150 O   0  0  0  0  0  0  0  0  0  0  0  0
   12.4096   -9.2974  -11.6775 N   0  0  0  0  0  0  0  0  0  0  0  0
   13.1163  -10.5560  -11.9684 C   0  0  1  0  0  0  0  0  0  0  0  0
   13.1033  -10.7203  -13.0466 H   0  0  0  0  0  0  0  0  0  0  0  0
   14.5824  -10.4274  -11.5236 C   0  0  0  0  0  0  0  0  0  0  0  0
   15.4605  -11.6351  -11.7636 C   0  0  0  0  0  0  0  0  0  0  0  0
   16.0990  -11.8387  -12.9958 C   0  0  0  0  0  0  0  0  0  0  0  0
   16.9444  -12.9378  -13.1857 C   0  0  0  0  0  0  0  0  0  0  0  0
   17.1818  -13.8290  -12.1414 C   0  0  0  0  0  0  0  0  0  0  0  0
   16.5583  -13.6332  -10.9122 C   0  0  0  0  0  0  0  0  0  0  0  0
   15.6896  -12.5542  -10.7299 C   0  0  0  0  0  0  0  0  0  0  0  0
   12.3373  -11.7302  -11.3070 C   0  0  0  0  0  0  0  0  0  0  0  0
   12.4006  -11.9784  -10.1176 O   0  0  0  0  0  0  0  0  0  0  0  0
   11.4246  -12.3284  -12.1667 N   0  0  0  0  0  0  0  0  0  0  0  0
   10.6035  -13.5330  -11.8497 C   0  0  1  0  0  0  0  0  0  0  0  0
   10.7135  -13.7694  -10.7845 H   0  0  0  0  0  0  0  0  0  0  0  0
    9.1087  -13.3026  -12.1967 C   0  0  0  0  0  0  0  0  0  0  0  0
    8.1278  -14.4220  -11.8835 C   0  0  0  0  0  0  0  0  0  0  0  0
    7.4758  -14.4946  -10.6449 C   0  0  0  0  0  0  0  0  0  0  0  0
    6.5734  -15.5314  -10.3694 C   0  0  0  0  0  0  0  0  0  0  0  0
    6.3255  -16.5227  -11.3171 C   0  0  0  0  0  0  0  0  0  0  0  0
    6.9556  -16.4607  -12.5548 C   0  0  0  0  0  0  0  0  0  0  0  0
    7.8295  -15.4075  -12.8414 C   0  0  0  0  0  0  0  0  0  0  0  0
   11.2272  -14.6977  -12.6645 C   0  0  0  0  0  0  0  0  0  0  0  0
   12.5671  -14.6038  -12.9334 N   0  0  0  0  0  0  0  0  0  0  0  0
   10.6551  -15.7244  -13.0046 O   0  0  0  0  0  0  0  0  0  0  0  0
   12.0065   -1.8565  -10.8792 C   0  0  0  0  0  0  0  0  0  0  0  0
   11.5159   -0.5787  -10.6043 C   0  0  0  0  0  0  0  0  0  0  0  0
    6.8894    8.0319   -7.1811 H   0  0  0  0  0  0  0  0  0  0  0  0
    8.5761    7.6860   -6.7620 H   0  0  0  0  0  0  0  0  0  0  0  0
    7.4047    6.3620   -6.8925 H   0  0  0  0  0  0  0  0  0  0  0  0
    8.5656    8.0898   -9.1420 H   0  0  0  0  0  0  0  0  0  0  0  0
    7.1146    7.1108   -9.3759 H   0  0  0  0  0  0  0  0  0  0  0  0
    8.3373    5.0754   -8.7070 H   0  0  0  0  0  0  0  0  0  0  0  0
    9.8200    6.0002   -8.4603 H   0  0  0  0  0  0  0  0  0  0  0  0
    9.8074    6.6644  -10.8751 H   0  0  0  0  0  0  0  0  0  0  0  0
    8.3395    5.7278  -11.1354 H   0  0  0  0  0  0  0  0  0  0  0  0
   11.0625    4.6307  -10.2566 H   0  0  0  0  0  0  0  0  0  0  0  0
   10.3669    4.5120  -11.8696 H   0  0  0  0  0  0  0  0  0  0  0  0
    8.4688    3.1329  -10.9433 H   0  0  0  0  0  0  0  0  0  0  0  0
    9.1828    3.2203   -9.3463 H   0  0  0  0  0  0  0  0  0  0  0  0
   11.2194    2.0897  -10.1217 H   0  0  0  0  0  0  0  0  0  0  0  0
   10.5222    1.9511  -11.7720 H   0  0  0  0  0  0  0  0  0  0  0  0
    8.1841   -1.2455  -10.7158 H   0  0  0  0  0  0  0  0  0  0  0  0
    9.0410   -3.5082  -11.1742 H   0  0  0  0  0  0  0  0  0  0  0  0
   12.6019   -4.2306  -11.6480 H   0  0  0  0  0  0  0  0  0  0  0  0
   11.9497   -7.1937  -10.2043 H   0  0  0  0  0  0  0  0  0  0  0  0
   12.8833   -6.3626  -11.4390 H   0  0  0  0  0  0  0  0  0  0  0  0
   11.0125   -6.6242  -13.0754 H   0  0  0  0  0  0  0  0  0  0  0  0
   10.0593   -7.5130  -11.8907 H   0  0  0  0  0  0  0  0  0  0  0  0
   12.3076   -9.0500  -10.7005 H   0  0  0  0  0  0  0  0  0  0  0  0
   14.6534  -10.1296  -10.4685 H   0  0  0  0  0  0  0  0  0  0  0  0
   15.0254   -9.5840  -12.0747 H   0  0  0  0  0  0  0  0  0  0  0  0
   15.9646  -11.1354  -13.8152 H   0  0  0  0  0  0  0  0  0  0  0  0
   17.4284  -13.0958  -14.1470 H   0  0  0  0  0  0  0  0  0  0  0  0
   17.8507  -14.6749  -12.2833 H   0  0  0  0  0  0  0  0  0  0  0  0
   16.7484  -14.3205  -10.0912 H   0  0  0  0  0  0  0  0  0  0  0  0
   15.2018  -12.4320   -9.7639 H   0  0  0  0  0  0  0  0  0  0  0  0
   11.5962  -12.1905  -13.1612 H   0  0  0  0  0  0  0  0  0  0  0  0
    9.0124  -13.0498  -13.2620 H   0  0  0  0  0  0  0  0  0  0  0  0
    8.7603  -12.4035  -11.6677 H   0  0  0  0  0  0  0  0  0  0  0  0
    7.6526  -13.7399   -9.8831 H   0  0  0  0  0  0  0  0  0  0  0  0
    6.0639  -15.5685   -9.4099 H   0  0  0  0  0  0  0  0  0  0  0  0
    5.6451  -17.3402  -11.0931 H   0  0  0  0  0  0  0  0  0  0  0  0
    6.7777  -17.2348  -13.2974 H   0  0  0  0  0  0  0  0  0  0  0  0
    8.3079  -15.3880  -13.8191 H   0  0  0  0  0  0  0  0  0  0  0  0
   13.1265  -13.8032  -12.6961 H   0  0  0  0  0  0  0  0  0  0  0  0
   13.0000  -15.3907  -13.3975 H   0  0  0  0  0  0  0  0  0  0  0  0
   13.0799   -2.0228  -10.8788 H   0  0  0  0  0  0  0  0  0  0  0  0
   12.2313    0.2094  -10.3992 H   0  0  0  0  0  0  0  0  0  0  0  0
  1  2  1  0  0  0  0
  1 47  1  0  0  0  0
  1 48  1  0  0  0  0
  1 49  1  0  0  0  0
  2  3  1  0  0  0  0
  2 50  1  0  0  0  0
  2 51  1  0  0  0  0
  3  4  1  0  0  0  0
  3 52  1  0  0  0  0
  3 53  1  0  0  0  0
  4  5  1  0  0  0  0
  4 54  1  0  0  0  0
  4 55  1  0  0  0  0
  5  6  1  0  0  0  0
  5 56  1  0  0  0  0
  5 57  1  0  0  0  0
  6  7  1  0  0  0  0
  6 58  1  0  0  0  0
  6 59  1  0  0  0  0
  7  8  1  0  0  0  0
  7 60  1  0  0  0  0
  7 61  1  0  0  0  0
  8  9  1  0  0  0  0
  9 10  2  0  0  0  0
  9 46  1  0  0  0  0
 10 11  1  0  0  0  0
 10 62  1  0  0  0  0
 11 12  2  0  0  0  0
 11 63  1  0  0  0  0
 12 13  1  0  0  0  0
 12 45  1  0  0  0  0
 13 14  1  0  0  0  0
 13 64  1  0  0  0  0
 14 15  2  0  0  0  0
 14 16  1  0  0  0  0
 16 17  1  0  0  0  0
 16 65  1  0  0  0  0
 16 66  1  0  0  0  0
 17 18  1  0  0  0  0
 17 67  1  0  0  0  0
 17 68  1  0  0  0  0
 18 19  2  0  0  0  0
 18 20  1  0  0  0  0
 20 21  1  0  0  0  0
 20 69  1  0  0  0  0
 21 22  1  6  0  0  0
 21 23  1  0  0  0  0
 21 30  1  0  0  0  0
 23 24  1  0  0  0  0
 23 70  1  0  0  0  0
 23 71  1  0  0  0  0
 24 25  2  0  0  0  0
 24 29  1  0  0  0  0
 25 26  1  0  0  0  0
 25 72  1  0  0  0  0
 26 27  2  0  0  0  0
 26 73  1  0  0  0  0
 27 28  1  0  0  0  0
 27 74  1  0  0  0  0
 28 29  2  0  0  0  0
 28 75  1  0  0  0  0
 29 76  1  0  0  0  0
 30 31  2  0  0  0  0
 30 32  1  0  0  0  0
 32 33  1  0  0  0  0
 32 77  1  0  0  0  0
 33 34  1  1  0  0  0
 33 35  1  0  0  0  0
 33 42  1  0  0  0  0
 35 36  1  0  0  0  0
 35 78  1  0  0  0  0
 35 79  1  0  0  0  0
 36 37  2  0  0  0  0
 36 41  1  0  0  0  0
 37 38  1  0  0  0  0
 37 80  1  0  0  0  0
 38 39  2  0  0  0  0
 38 81  1  0  0  0  0
 39 40  1  0  0  0  0
 39 82  1  0  0  0  0
 40 41  2  0  0  0  0
 40 83  1  0  0  0  0
 41 84  1  0  0  0  0
 42 43  1  0  0  0  0
 42 44  2  0  0  0  0
 43 85  1  0  0  0  0
 43 86  1  0  0  0  0
 45 46  2  0  0  0  0
 45 87  1  0  0  0  0
 46 88  1  0  0  0  0
M  END
$$$$
