
 OpenBabel02222212163D

 55 57  0  0  1  0  0  0  0  0999 V2000
    3.3553   -2.1794   -9.1200 C   0  0  0  0  0  0  0  0  0  0  0  0
    3.1978   -1.7446   -7.7004 C   0  0  0  0  0  0  0  0  0  0  0  0
    3.9876   -0.8463   -7.0926 C   0  0  0  0  0  0  0  0  0  0  0  0
    3.8068   -0.4222   -5.6620 C   0  0  0  0  0  0  0  0  0  0  0  0
    4.6182   -1.2661   -4.6763 C   0  0  0  0  0  0  0  0  0  0  0  0
    6.1270   -1.1840   -4.9119 C   0  0  0  0  0  0  0  0  0  0  0  0
    6.8873   -2.0478   -3.9078 C   0  0  0  0  0  0  0  0  0  0  0  0
    8.3637   -1.9788   -4.1587 C   0  0  0  0  0  0  0  0  0  0  0  0
    9.0027   -2.8368   -4.9665 C   0  0  0  0  0  0  0  0  0  0  0  0
   10.4655   -2.7165   -5.1384 C   0  0  0  0  0  0  0  0  0  0  0  0
   10.9988   -1.7166   -5.5781 O   0  0  0  0  0  0  0  0  0  0  0  0
   11.1113   -3.8441   -4.7086 N   0  0  0  0  0  0  0  0  0  0  0  0
   12.5670   -4.0091   -4.8003 C   0  0  3  0  0  0  0  0  0  0  0  0
   13.1282   -4.2488   -3.3926 C   0  0  0  0  0  0  0  0  0  0  0  0
   14.6530   -4.4711   -3.2566 C   0  0  3  0  0  0  0  0  0  0  0  0
   15.4252   -3.3191   -3.8324 C   0  0  3  0  0  0  0  0  0  0  0  0
   16.6565   -2.7387   -3.1843 C   0  0  3  0  0  0  0  0  0  0  0  0
   15.3748   -2.0995   -3.0791 O   0  0  0  0  0  0  0  0  0  0  0  0
   17.1793   -3.3519   -1.9113 C   0  0  3  0  0  0  0  0  0  0  0  0
   16.2425   -4.2917   -1.2088 C   0  0  3  0  0  0  0  0  0  0  0  0
   14.9583   -4.7664   -1.7711 C   0  0  0  0  0  0  0  0  0  0  0  0
   14.2417   -5.4681   -1.0611 O   0  0  0  0  0  0  0  0  0  0  0  0
   17.4002   -4.7661   -1.9282 O   0  0  0  0  0  0  0  0  0  0  0  0
   15.0054   -5.6472   -3.9925 O   0  0  0  0  0  0  0  0  0  0  0  0
   12.8149   -5.1391   -5.8073 C   0  0  0  0  0  0  0  0  0  0  0  0
   12.0802   -6.1060   -5.9701 O   0  0  0  0  0  0  0  0  0  0  0  0
   13.9433   -4.8708   -6.5265 O   0  0  0  0  0  0  0  0  0  0  0  0
   14.2576   -5.8307   -7.5326 C   0  0  0  0  0  0  0  0  0  0  0  0
    3.4960   -3.2638   -9.1642 H   0  0  0  0  0  0  0  0  0  0  0  0
    4.2115   -1.7039   -9.6083 H   0  0  0  0  0  0  0  0  0  0  0  0
    2.4530   -1.9264   -9.6847 H   0  0  0  0  0  0  0  0  0  0  0  0
    2.3875   -2.2101   -7.1436 H   0  0  0  0  0  0  0  0  0  0  0  0
    4.8053   -0.3812   -7.6407 H   0  0  0  0  0  0  0  0  0  0  0  0
    2.7459   -0.4860   -5.3902 H   0  0  0  0  0  0  0  0  0  0  0  0
    4.0826    0.6349   -5.5661 H   0  0  0  0  0  0  0  0  0  0  0  0
    4.2936   -2.3128   -4.7373 H   0  0  0  0  0  0  0  0  0  0  0  0
    4.3928   -0.9262   -3.6579 H   0  0  0  0  0  0  0  0  0  0  0  0
    6.4578   -0.1406   -4.8397 H   0  0  0  0  0  0  0  0  0  0  0  0
    6.3646   -1.5274   -5.9263 H   0  0  0  0  0  0  0  0  0  0  0  0
    6.5426   -3.0876   -3.9730 H   0  0  0  0  0  0  0  0  0  0  0  0
    6.6813   -1.7170   -2.8827 H   0  0  0  0  0  0  0  0  0  0  0  0
    8.9187   -1.1928   -3.6484 H   0  0  0  0  0  0  0  0  0  0  0  0
    8.4984   -3.6349   -5.4954 H   0  0  0  0  0  0  0  0  0  0  0  0
   10.5668   -4.6629   -4.4605 H   0  0  0  0  0  0  0  0  0  0  0  0
   12.9829   -3.0891   -5.2222 H   0  0  0  0  0  0  0  0  0  0  0  0
   12.5976   -5.1075   -2.9578 H   0  0  0  0  0  0  0  0  0  0  0  0
   12.8497   -3.3821   -2.7745 H   0  0  0  0  0  0  0  0  0  0  0  0
   15.3566   -3.2492   -4.9106 H   0  0  0  0  0  0  0  0  0  0  0  0
   17.3894   -2.2809   -3.8406 H   0  0  0  0  0  0  0  0  0  0  0  0
   17.8396   -2.7468   -1.3003 H   0  0  0  0  0  0  0  0  0  0  0  0
   16.2929   -4.3058   -0.1252 H   0  0  0  0  0  0  0  0  0  0  0  0
   15.9088   -5.9042   -3.7273 H   0  0  0  0  0  0  0  0  0  0  0  0
   15.0081   -5.3825   -8.1897 H   0  0  0  0  0  0  0  0  0  0  0  0
   13.3811   -6.0826   -8.1374 H   0  0  0  0  0  0  0  0  0  0  0  0
   14.6855   -6.7255   -7.0723 H   0  0  0  0  0  0  0  0  0  0  0  0
  1  2  1  0  0  0  0
  1 29  1  0  0  0  0
  1 30  1  0  0  0  0
  1 31  1  0  0  0  0
  2  3  2  3  0  0  0
  2 32  1  0  0  0  0
  3  4  1  0  0  0  0
  3 33  1  0  0  0  0
  4  5  1  0  0  0  0
  4 34  1  0  0  0  0
  4 35  1  0  0  0  0
  5  6  1  0  0  0  0
  5 36  1  0  0  0  0
  5 37  1  0  0  0  0
  6  7  1  0  0  0  0
  6 38  1  0  0  0  0
  6 39  1  0  0  0  0
  7  8  1  0  0  0  0
  7 40  1  0  0  0  0
  7 41  1  0  0  0  0
  8  9  2  3  0  0  0
  8 42  1  0  0  0  0
  9 10  1  0  0  0  0
  9 43  1  0  0  0  0
 10 11  2  0  0  0  0
 10 12  1  0  0  0  0
 12 13  1  0  0  0  0
 12 44  1  0  0  0  0
 13 14  1  0  0  0  0
 13 25  1  0  0  0  0
 13 45  1  0  0  0  0
 14 15  1  0  0  0  0
 14 46  1  0  0  0  0
 14 47  1  0  0  0  0
 15 16  1  0  0  0  0
 15 21  1  0  0  0  0
 15 24  1  0  0  0  0
 16 17  1  0  0  0  0
 16 18  1  0  0  0  0
 16 48  1  0  0  0  0
 17 18  1  0  0  0  0
 17 19  1  0  0  0  0
 17 49  1  0  0  0  0
 19 20  1  0  0  0  0
 19 23  1  0  0  0  0
 19 50  1  0  0  0  0
 20 21  1  0  0  0  0
 20 23  1  0  0  0  0
 20 51  1  0  0  0  0
 21 22  2  0  0  0  0
 24 52  1  0  0  0  0
 25 26  2  0  0  0  0
 25 27  1  0  0  0  0
 27 28  1  0  0  0  0
 28 53  1  0  0  0  0
 28 54  1  0  0  0  0
 28 55  1  0  0  0  0
M  END
$$$$
