
 OpenBabel02222212253D

 79 79  0  0  1  0  0  0  0  0999 V2000
   14.0323    2.5368    7.0954 C   0  0  0  0  0  0  0  0  0  0  0  0
   13.0953    3.2960    6.1949 C   0  0  0  0  0  0  0  0  0  0  0  0
   12.4789    2.4964    5.0716 C   0  0  0  0  0  0  0  0  0  0  0  0
   11.5823    3.4210    4.2709 C   0  0  0  0  0  0  0  0  0  0  0  0
   12.2350    4.6529    3.6313 C   0  0  0  0  0  0  0  0  0  0  0  0
   13.2657    4.3192    2.5561 C   0  0  0  0  0  0  0  0  0  0  0  0
   12.7254    3.4968    1.3756 C   0  0  0  0  0  0  0  0  0  0  0  0
   11.5753    4.0822    0.5446 C   0  0  3  0  0  0  0  0  0  0  0  0
   11.1759    3.2051   -0.6595 C   0  0  0  0  0  0  0  0  0  0  0  0
   10.5872    1.7663   -0.4319 C   0  0  3  0  0  0  0  0  0  0  0  0
   10.8316    0.2057    0.0109 C   0  0  3  0  0  0  0  0  0  0  0  0
    9.3825    0.4577    0.6782 C   0  0  0  0  0  0  0  0  0  0  0  0
    8.4146   -0.0532    1.0677 O   0  0  0  0  0  0  0  0  0  0  0  0
    9.7561    1.7840    0.7644 O   0  0  0  0  0  0  0  0  0  0  0  0
   11.8187   -0.0957    1.1206 C   0  0  0  0  0  0  0  0  0  0  0  0
   11.9028   -1.5536    1.6377 C   0  0  0  0  0  0  0  0  0  0  0  0
   10.6844   -2.2221    2.3427 C   0  0  0  0  0  0  0  0  0  0  0  0
   10.9950   -3.6287    2.9811 C   0  0  0  0  0  0  0  0  0  0  0  0
    9.7571   -4.2754    3.6582 C   0  0  0  0  0  0  0  0  0  0  0  0
    9.9294   -5.6134    4.4313 C   0  0  0  0  0  0  0  0  0  0  0  0
   10.9778   -5.8005    5.5546 C   0  0  0  0  0  0  0  0  0  0  0  0
   10.8529   -4.9098    6.8118 C   0  0  0  0  0  0  0  0  0  0  0  0
   11.9352   -5.2360    7.8569 C   0  0  0  0  0  0  0  0  0  0  0  0
   10.9453   -3.4213    6.5120 C   0  0  0  0  0  0  0  0  0  0  0  0
   10.3968    4.6402    1.2073 O   0  0  0  0  0  0  0  0  0  0  0  0
    9.3878    3.8706    1.6937 C   0  0  0  0  0  0  0  0  0  0  0  0
    9.4758    3.1555    2.6873 O   0  0  0  0  0  0  0  0  0  0  0  0
    8.0441    4.0048    0.9470 C   0  0  3  0  0  0  0  0  0  0  0  0
    7.8900    3.1795   -0.3436 C   0  0  0  0  0  0  0  0  0  0  0  0
    7.0514    3.7434    2.0021 N   0  0  0  0  0  0  0  0  0  0  0  0
    5.8151    3.1990    1.8501 C   0  0  0  0  0  0  0  0  0  0  0  0
    5.2757    2.8811    0.8036 O   0  0  0  0  0  0  0  0  0  0  0  0
   14.6580    3.2705    7.6139 H   0  0  0  0  0  0  0  0  0  0  0  0
   14.6861    1.8595    6.5402 H   0  0  0  0  0  0  0  0  0  0  0  0
   13.4762    1.9747    7.8487 H   0  0  0  0  0  0  0  0  0  0  0  0
   13.6729    4.1118    5.7567 H   0  0  0  0  0  0  0  0  0  0  0  0
   12.2944    3.7414    6.7956 H   0  0  0  0  0  0  0  0  0  0  0  0
   11.8769    1.6540    5.4407 H   0  0  0  0  0  0  0  0  0  0  0  0
   13.2318    2.0646    4.4018 H   0  0  0  0  0  0  0  0  0  0  0  0
   10.7277    3.7510    4.8794 H   0  0  0  0  0  0  0  0  0  0  0  0
   11.2276    2.7561    3.4983 H   0  0  0  0  0  0  0  0  0  0  0  0
   12.6969    5.2754    4.4025 H   0  0  0  0  0  0  0  0  0  0  0  0
   11.4693    5.3036    3.2005 H   0  0  0  0  0  0  0  0  0  0  0  0
   14.0934    3.7589    3.0146 H   0  0  0  0  0  0  0  0  0  0  0  0
   13.7167    5.2517    2.1952 H   0  0  0  0  0  0  0  0  0  0  0  0
   12.4406    2.5153    1.7409 H   0  0  0  0  0  0  0  0  0  0  0  0
   13.5720    3.3213    0.6925 H   0  0  0  0  0  0  0  0  0  0  0  0
   12.0099    4.9939    0.0979 H   0  0  0  0  0  0  0  0  0  0  0  0
   11.9613    3.1746   -1.4198 H   0  0  0  0  0  0  0  0  0  0  0  0
   10.4094    3.8337   -1.1443 H   0  0  0  0  0  0  0  0  0  0  0  0
    9.9707    1.7161   -1.3561 H   0  0  0  0  0  0  0  0  0  0  0  0
   10.7555   -0.4688   -0.8415 H   0  0  0  0  0  0  0  0  0  0  0  0
   11.6462    0.5616    1.9845 H   0  0  0  0  0  0  0  0  0  0  0  0
   12.7918    0.1812    0.7088 H   0  0  0  0  0  0  0  0  0  0  0  0
   12.7298   -1.5432    2.3597 H   0  0  0  0  0  0  0  0  0  0  0  0
   12.2180   -2.1862    0.8042 H   0  0  0  0  0  0  0  0  0  0  0  0
    9.8850   -2.3552    1.6065 H   0  0  0  0  0  0  0  0  0  0  0  0
   10.2984   -1.5623    3.1298 H   0  0  0  0  0  0  0  0  0  0  0  0
   11.8120   -3.5276    3.7036 H   0  0  0  0  0  0  0  0  0  0  0  0
   11.3444   -4.3077    2.1946 H   0  0  0  0  0  0  0  0  0  0  0  0
    9.0140   -4.4674    2.8737 H   0  0  0  0  0  0  0  0  0  0  0  0
    9.2471   -3.5517    4.2962 H   0  0  0  0  0  0  0  0  0  0  0  0
   10.1121   -6.4022    3.6883 H   0  0  0  0  0  0  0  0  0  0  0  0
    8.9503   -5.8596    4.8688 H   0  0  0  0  0  0  0  0  0  0  0  0
   11.9868   -5.7425    5.1322 H   0  0  0  0  0  0  0  0  0  0  0  0
   10.8726   -6.8436    5.9018 H   0  0  0  0  0  0  0  0  0  0  0  0
    9.8787   -5.1082    7.2769 H   0  0  0  0  0  0  0  0  0  0  0  0
   12.9268   -5.3297    7.4008 H   0  0  0  0  0  0  0  0  0  0  0  0
   11.7127   -6.1654    8.3901 H   0  0  0  0  0  0  0  0  0  0  0  0
   11.9979   -4.4404    8.6108 H   0  0  0  0  0  0  0  0  0  0  0  0
   11.9190   -3.1602    6.0877 H   0  0  0  0  0  0  0  0  0  0  0  0
   10.7806   -2.8310    7.4170 H   0  0  0  0  0  0  0  0  0  0  0  0
   10.1716   -3.0926    5.8331 H   0  0  0  0  0  0  0  0  0  0  0  0
    7.9435    5.0599    0.7005 H   0  0  0  0  0  0  0  0  0  0  0  0
    8.4931    3.6176   -1.1363 H   0  0  0  0  0  0  0  0  0  0  0  0
    6.8853    3.0381   -0.7167 H   0  0  0  0  0  0  0  0  0  0  0  0
    8.1542    2.1351   -0.3127 H   0  0  0  0  0  0  0  0  0  0  0  0
    7.3105    4.0241    2.9445 H   0  0  0  0  0  0  0  0  0  0  0  0
    5.2998    3.0975    2.8188 H   0  0  0  0  0  0  0  0  0  0  0  0
  1  2  1  0  0  0  0
  1 33  1  0  0  0  0
  1 34  1  0  0  0  0
  1 35  1  0  0  0  0
  2  3  1  0  0  0  0
  2 36  1  0  0  0  0
  2 37  1  0  0  0  0
  3  4  1  0  0  0  0
  3 38  1  0  0  0  0
  3 39  1  0  0  0  0
  4  5  1  0  0  0  0
  4 40  1  0  0  0  0
  4 41  1  0  0  0  0
  5  6  1  0  0  0  0
  5 42  1  0  0  0  0
  5 43  1  0  0  0  0
  6  7  1  0  0  0  0
  6 44  1  0  0  0  0
  6 45  1  0  0  0  0
  7  8  1  0  0  0  0
  7 46  1  0  0  0  0
  7 47  1  0  0  0  0
  8  9  1  0  0  0  0
  8 25  1  0  0  0  0
  8 48  1  0  0  0  0
  9 10  1  0  0  0  0
  9 49  1  0  0  0  0
  9 50  1  0  0  0  0
 10 11  1  0  0  0  0
 10 14  1  0  0  0  0
 10 51  1  0  0  0  0
 11 12  1  0  0  0  0
 11 15  1  0  0  0  0
 11 52  1  0  0  0  0
 12 13  2  0  0  0  0
 12 14  1  0  0  0  0
 15 16  1  0  0  0  0
 15 53  1  0  0  0  0
 15 54  1  0  0  0  0
 16 17  1  0  0  0  0
 16 55  1  0  0  0  0
 16 56  1  0  0  0  0
 17 18  1  0  0  0  0
 17 57  1  0  0  0  0
 17 58  1  0  0  0  0
 18 19  1  0  0  0  0
 18 59  1  0  0  0  0
 18 60  1  0  0  0  0
 19 20  1  0  0  0  0
 19 61  1  0  0  0  0
 19 62  1  0  0  0  0
 20 21  1  0  0  0  0
 20 63  1  0  0  0  0
 20 64  1  0  0  0  0
 21 22  1  0  0  0  0
 21 65  1  0  0  0  0
 21 66  1  0  0  0  0
 22 23  1  0  0  0  0
 22 24  1  0  0  0  0
 22 67  1  0  0  0  0
 23 68  1  0  0  0  0
 23 69  1  0  0  0  0
 23 70  1  0  0  0  0
 24 71  1  0  0  0  0
 24 72  1  0  0  0  0
 24 73  1  0  0  0  0
 25 26  1  0  0  0  0
 26 27  2  0  0  0  0
 26 28  1  0  0  0  0
 28 29  1  0  0  0  0
 28 30  1  0  0  0  0
 28 74  1  0  0  0  0
 29 75  1  0  0  0  0
 29 76  1  0  0  0  0
 29 77  1  0  0  0  0
 30 31  1  0  0  0  0
 30 78  1  0  0  0  0
 31 32  2  0  0  0  0
 31 79  1  0  0  0  0
M  END
$$$$
