
 OpenBabel02222212283D

 76 76  0  0  1  0  0  0  0  0999 V2000
    5.8154    4.3975    4.4464 C   0  0  0  0  0  0  0  0  0  0  0  0
    7.3156    4.3830    4.2298 C   0  0  0  0  0  0  0  0  0  0  0  0
    7.8303    5.7075    3.6643 C   0  0  0  0  0  0  0  0  0  0  0  0
    9.3452    5.6728    3.4213 C   0  0  0  0  0  0  0  0  0  0  0  0
    9.7764    4.5880    2.4297 C   0  0  0  0  0  0  0  0  0  0  0  0
    9.1143    4.8043    1.0699 C   0  0  0  0  0  0  0  0  0  0  0  0
    9.4928    3.7251    0.0709 C   0  0  0  0  0  0  0  0  0  0  0  0
    8.8374    3.9653   -1.2985 C   0  0  3  0  0  0  0  0  0  0  0  0
    9.1738    2.8608   -2.3150 C   0  0  0  0  0  0  0  0  0  0  0  0
    8.7631    1.4667   -1.8444 C   0  0  3  0  0  0  0  0  0  0  0  0
    9.0500    0.2331   -2.7371 C   0  0  3  0  0  0  0  0  0  0  0  0
    9.8588   -0.2304   -1.5008 C   0  0  0  0  0  0  0  0  0  0  0  0
   10.4939   -1.1897   -1.1584 O   0  0  0  0  0  0  0  0  0  0  0  0
    9.6746    0.9386   -0.8348 O   0  0  0  0  0  0  0  0  0  0  0  0
    9.8708    0.3973   -4.0092 C   0  0  0  0  0  0  0  0  0  0  0  0
   10.0313   -0.9503   -4.7145 C   0  0  0  0  0  0  0  0  0  0  0  0
   10.8492   -0.8032   -5.9963 C   0  0  0  0  0  0  0  0  0  0  0  0
   10.8778   -2.1026   -6.7981 C   0  0  0  0  0  0  0  0  0  0  0  0
   11.6995   -1.9329   -8.0779 C   0  0  0  0  0  0  0  0  0  0  0  0
   11.6510   -3.1983   -8.9273 C   0  0  0  0  0  0  0  0  0  0  0  0
   12.4656   -3.0522  -10.2183 C   0  0  0  0  0  0  0  0  0  0  0  0
   12.4617   -4.3115  -11.1078 C   0  0  0  0  0  0  0  0  0  0  0  0
   13.0527   -5.5167  -10.3752 C   0  0  0  0  0  0  0  0  0  0  0  0
   11.0646   -4.6460  -11.6335 C   0  0  0  0  0  0  0  0  0  0  0  0
    7.3975    4.0735   -1.1585 O   0  0  0  0  0  0  0  0  0  0  0  0
    6.8122    5.2515   -1.5451 C   0  0  0  0  0  0  0  0  0  0  0  0
    7.3928    6.2001   -2.0560 O   0  0  0  0  0  0  0  0  0  0  0  0
    5.3111    5.2061   -1.2630 C   0  0  0  0  0  0  0  0  0  0  0  0
    4.6160    6.4086   -1.6929 N   0  0  0  0  0  0  0  0  0  0  0  0
    3.5053    6.9080   -1.0825 C   0  0  0  0  0  0  0  0  0  0  0  0
    2.9273    7.9160   -1.4619 O   0  0  0  0  0  0  0  0  0  0  0  0
    5.4910    3.4341    4.8522 H   0  0  0  0  0  0  0  0  0  0  0  0
    5.2860    4.5625    3.5024 H   0  0  0  0  0  0  0  0  0  0  0  0
    5.5294    5.1827    5.1509 H   0  0  0  0  0  0  0  0  0  0  0  0
    7.5418    3.5553    3.5498 H   0  0  0  0  0  0  0  0  0  0  0  0
    7.8235    4.1717    5.1774 H   0  0  0  0  0  0  0  0  0  0  0  0
    7.5972    6.5255    4.3550 H   0  0  0  0  0  0  0  0  0  0  0  0
    7.3013    5.9493    2.7351 H   0  0  0  0  0  0  0  0  0  0  0  0
    9.8632    5.5169    4.3750 H   0  0  0  0  0  0  0  0  0  0  0  0
    9.6702    6.6503    3.0435 H   0  0  0  0  0  0  0  0  0  0  0  0
    9.5277    3.5944    2.8210 H   0  0  0  0  0  0  0  0  0  0  0  0
   10.8672    4.6006    2.3237 H   0  0  0  0  0  0  0  0  0  0  0  0
    9.3895    5.7895    0.6798 H   0  0  0  0  0  0  0  0  0  0  0  0
    8.0264    4.7847    1.1825 H   0  0  0  0  0  0  0  0  0  0  0  0
    9.1679    2.7730    0.5009 H   0  0  0  0  0  0  0  0  0  0  0  0
   10.5820    3.6882   -0.0480 H   0  0  0  0  0  0  0  0  0  0  0  0
    9.2454    4.9034   -1.6927 H   0  0  0  0  0  0  0  0  0  0  0  0
   10.2487    2.8870   -2.5305 H   0  0  0  0  0  0  0  0  0  0  0  0
    8.6462    3.0812   -3.2508 H   0  0  0  0  0  0  0  0  0  0  0  0
    7.7317    1.4565   -1.4664 H   0  0  0  0  0  0  0  0  0  0  0  0
    8.1488   -0.3693   -2.8944 H   0  0  0  0  0  0  0  0  0  0  0  0
   10.8572    0.8236   -3.7881 H   0  0  0  0  0  0  0  0  0  0  0  0
    9.3605    1.0940   -4.6841 H   0  0  0  0  0  0  0  0  0  0  0  0
    9.0395   -1.3561   -4.9496 H   0  0  0  0  0  0  0  0  0  0  0  0
   10.5170   -1.6723   -4.0469 H   0  0  0  0  0  0  0  0  0  0  0  0
   11.8731   -0.5022   -5.7439 H   0  0  0  0  0  0  0  0  0  0  0  0
   10.4213   -0.0068   -6.6171 H   0  0  0  0  0  0  0  0  0  0  0  0
    9.8527   -2.3992   -7.0533 H   0  0  0  0  0  0  0  0  0  0  0  0
   11.3031   -2.9091   -6.1879 H   0  0  0  0  0  0  0  0  0  0  0  0
   12.7398   -1.7055   -7.8169 H   0  0  0  0  0  0  0  0  0  0  0  0
   11.3137   -1.0881   -8.6597 H   0  0  0  0  0  0  0  0  0  0  0  0
   10.6076   -3.4264   -9.1685 H   0  0  0  0  0  0  0  0  0  0  0  0
   12.0353   -4.0282   -8.3260 H   0  0  0  0  0  0  0  0  0  0  0  0
   13.5039   -2.8040   -9.9611 H   0  0  0  0  0  0  0  0  0  0  0  0
   12.0800   -2.2026  -10.7968 H   0  0  0  0  0  0  0  0  0  0  0  0
   13.0989   -4.1057  -11.9788 H   0  0  0  0  0  0  0  0  0  0  0  0
   12.5033   -5.7450   -9.4576 H   0  0  0  0  0  0  0  0  0  0  0  0
   14.0979   -5.3297  -10.1083 H   0  0  0  0  0  0  0  0  0  0  0  0
   13.0155   -6.4137  -11.0004 H   0  0  0  0  0  0  0  0  0  0  0  0
   10.3613   -4.8480  -10.8206 H   0  0  0  0  0  0  0  0  0  0  0  0
   11.0936   -5.5391  -12.2667 H   0  0  0  0  0  0  0  0  0  0  0  0
   10.6648   -3.8233  -12.2356 H   0  0  0  0  0  0  0  0  0  0  0  0
    5.1441    5.0650   -0.1910 H   0  0  0  0  0  0  0  0  0  0  0  0
    4.8775    4.3736   -1.8237 H   0  0  0  0  0  0  0  0  0  0  0  0
    4.9457    6.9204   -2.5063 H   0  0  0  0  0  0  0  0  0  0  0  0
    3.1665    6.3180   -0.2155 H   0  0  0  0  0  0  0  0  0  0  0  0
  1  2  1  0  0  0  0
  1 32  1  0  0  0  0
  1 33  1  0  0  0  0
  1 34  1  0  0  0  0
  2  3  1  0  0  0  0
  2 35  1  0  0  0  0
  2 36  1  0  0  0  0
  3  4  1  0  0  0  0
  3 37  1  0  0  0  0
  3 38  1  0  0  0  0
  4  5  1  0  0  0  0
  4 39  1  0  0  0  0
  4 40  1  0  0  0  0
  5  6  1  0  0  0  0
  5 41  1  0  0  0  0
  5 42  1  0  0  0  0
  6  7  1  0  0  0  0
  6 43  1  0  0  0  0
  6 44  1  0  0  0  0
  7  8  1  0  0  0  0
  7 45  1  0  0  0  0
  7 46  1  0  0  0  0
  8  9  1  0  0  0  0
  8 25  1  0  0  0  0
  8 47  1  0  0  0  0
  9 10  1  0  0  0  0
  9 48  1  0  0  0  0
  9 49  1  0  0  0  0
 10 11  1  0  0  0  0
 10 14  1  0  0  0  0
 10 50  1  0  0  0  0
 11 12  1  0  0  0  0
 11 15  1  0  0  0  0
 11 51  1  0  0  0  0
 12 13  2  0  0  0  0
 12 14  1  0  0  0  0
 15 16  1  0  0  0  0
 15 52  1  0  0  0  0
 15 53  1  0  0  0  0
 16 17  1  0  0  0  0
 16 54  1  0  0  0  0
 16 55  1  0  0  0  0
 17 18  1  0  0  0  0
 17 56  1  0  0  0  0
 17 57  1  0  0  0  0
 18 19  1  0  0  0  0
 18 58  1  0  0  0  0
 18 59  1  0  0  0  0
 19 20  1  0  0  0  0
 19 60  1  0  0  0  0
 19 61  1  0  0  0  0
 20 21  1  0  0  0  0
 20 62  1  0  0  0  0
 20 63  1  0  0  0  0
 21 22  1  0  0  0  0
 21 64  1  0  0  0  0
 21 65  1  0  0  0  0
 22 23  1  0  0  0  0
 22 24  1  0  0  0  0
 22 66  1  0  0  0  0
 23 67  1  0  0  0  0
 23 68  1  0  0  0  0
 23 69  1  0  0  0  0
 24 70  1  0  0  0  0
 24 71  1  0  0  0  0
 24 72  1  0  0  0  0
 25 26  1  0  0  0  0
 26 27  2  0  0  0  0
 26 28  1  0  0  0  0
 28 29  1  0  0  0  0
 28 73  1  0  0  0  0
 28 74  1  0  0  0  0
 29 30  1  0  0  0  0
 29 75  1  0  0  0  0
 30 31  2  0  0  0  0
 30 76  1  0  0  0  0
M  END
$$$$
