
 OpenBabel02222212343D

 78 80  0  0  0  0  0  0  0  0999 V2000
    9.4248   15.5566   -0.9376 C   0  0  0  0  0  0  0  0  0  0  0  0
    9.4128   14.5436    0.1619 C   0  0  0  0  0  0  0  0  0  0  0  0
   10.6024   13.6204    0.1069 C   0  0  0  0  0  0  0  0  0  0  0  0
   12.0430   14.0723    0.2011 C   0  0  0  0  0  0  0  0  0  0  0  0
   13.0971   12.9616   -0.0052 C   0  0  0  0  0  0  0  0  0  0  0  0
   13.2246   11.8584    1.0346 C   0  0  0  0  0  0  0  0  0  0  0  0
   12.1450   10.8012    1.2077 C   0  0  0  0  0  0  0  0  0  0  0  0
   10.6958   11.0886    1.4768 C   0  0  0  0  0  0  0  0  0  0  0  0
    9.6328   10.0182    1.5501 C   0  0  0  0  0  0  0  0  0  0  0  0
    9.6352    9.0362    2.6928 C   0  0  0  0  0  0  0  0  0  0  0  0
   10.6420    7.8878    2.6677 C   0  0  0  0  0  0  0  0  0  0  0  0
   12.1055    8.2474    2.7412 C   0  0  0  0  0  0  0  0  0  0  0  0
   13.0218    7.0594    2.8903 C   0  0  0  0  0  0  0  0  0  0  0  0
   14.5285    7.3554    2.9590 C   0  0  0  0  0  0  0  0  0  0  0  0
   15.0798    8.1381    4.1676 C   0  0  0  0  0  0  0  0  0  0  0  0
   14.5590    9.5708    4.3036 C   0  0  0  0  0  0  0  0  0  0  0  0
   15.0058   10.3912    5.5094 C   0  0  0  0  0  0  0  0  0  0  0  0
   16.4773   10.4864    5.7655 C   0  0  0  0  0  0  0  0  0  0  0  0
   17.1149   10.1250    6.9633 C   0  0  0  0  0  0  0  0  0  0  0  0
   18.5218   10.2262    7.0306 C   0  0  0  0  0  0  0  0  0  0  0  0
   19.2877   10.6386    5.9371 C   0  0  0  0  0  0  0  0  0  0  0  0
   18.6589   11.0471    4.7705 C   0  0  0  0  0  0  0  0  0  0  0  0
   17.2711   10.9769    4.6939 C   0  0  0  0  0  0  0  0  0  0  0  0
   20.7372   10.4916    6.0148 C   0  0  0  0  0  0  0  0  0  0  0  0
   21.4873   10.8711    5.0644 O   0  0  0  0  0  0  0  0  0  0  0  0
   21.2881    9.8236    7.1845 C   0  0  0  0  0  0  0  0  0  0  0  0
   22.6199    9.4118    7.2615 C   0  0  0  0  0  0  0  0  0  0  0  0
   23.0719    8.7596    8.4112 C   0  0  0  0  0  0  0  0  0  0  0  0
   22.2070    8.5418    9.4872 C   0  0  0  0  0  0  0  0  0  0  0  0
   20.8805    8.9529    9.4058 C   0  0  0  0  0  0  0  0  0  0  0  0
   20.4205    9.5705    8.2478 C   0  0  0  0  0  0  0  0  0  0  0  0
   19.0928    9.8796    8.2333 O   0  0  0  0  0  0  0  0  0  0  0  0
   16.6043    9.5800    8.1102 O   0  0  0  0  0  0  0  0  0  0  0  0
   15.2303    9.4822    8.4104 C   0  0  0  0  0  0  0  0  0  0  0  0
   10.1233   16.3547   -0.6803 H   0  0  0  0  0  0  0  0  0  0  0  0
    8.4239   15.9773   -1.0521 H   0  0  0  0  0  0  0  0  0  0  0  0
    9.7294   15.1010   -1.8839 H   0  0  0  0  0  0  0  0  0  0  0  0
    8.5065   13.9201    0.0934 H   0  0  0  0  0  0  0  0  0  0  0  0
    9.3703   15.0206    1.1476 H   0  0  0  0  0  0  0  0  0  0  0  0
   10.4741   12.9213   -0.7329 H   0  0  0  0  0  0  0  0  0  0  0  0
   10.4467   13.1835    1.0766 H   0  0  0  0  0  0  0  0  0  0  0  0
   12.1956   14.5057    1.1949 H   0  0  0  0  0  0  0  0  0  0  0  0
   12.2228   14.8464   -0.5454 H   0  0  0  0  0  0  0  0  0  0  0  0
   14.0726   13.4707    0.0117 H   0  0  0  0  0  0  0  0  0  0  0  0
   13.0140   12.5088   -0.9991 H   0  0  0  0  0  0  0  0  0  0  0  0
   13.4693   12.2858    2.0150 H   0  0  0  0  0  0  0  0  0  0  0  0
   14.1260   11.2754    0.7683 H   0  0  0  0  0  0  0  0  0  0  0  0
   12.4855   10.3999    2.1490 H   0  0  0  0  0  0  0  0  0  0  0  0
   12.2048   10.0859    0.3791 H   0  0  0  0  0  0  0  0  0  0  0  0
   10.3471   11.5108    0.5503 H   0  0  0  0  0  0  0  0  0  0  0  0
   10.6149   11.7589    2.3431 H   0  0  0  0  0  0  0  0  0  0  0  0
    9.5773    9.5048    0.5853 H   0  0  0  0  0  0  0  0  0  0  0  0
    8.6866   10.5833    1.6319 H   0  0  0  0  0  0  0  0  0  0  0  0
    8.6515    8.5513    2.6440 H   0  0  0  0  0  0  0  0  0  0  0  0
    9.6611    9.5755    3.6468 H   0  0  0  0  0  0  0  0  0  0  0  0
   10.4798    7.2646    1.7868 H   0  0  0  0  0  0  0  0  0  0  0  0
   10.4252    7.2904    3.5576 H   0  0  0  0  0  0  0  0  0  0  0  0
   12.1685    8.9552    3.5563 H   0  0  0  0  0  0  0  0  0  0  0  0
   12.4427    8.6583    1.8009 H   0  0  0  0  0  0  0  0  0  0  0  0
   12.7001    6.4581    3.7392 H   0  0  0  0  0  0  0  0  0  0  0  0
   12.8658    6.4672    1.9772 H   0  0  0  0  0  0  0  0  0  0  0  0
   14.8635    7.8391    2.0313 H   0  0  0  0  0  0  0  0  0  0  0  0
   15.0134    6.3696    2.9673 H   0  0  0  0  0  0  0  0  0  0  0  0
   16.1705    8.1721    4.0497 H   0  0  0  0  0  0  0  0  0  0  0  0
   14.8790    7.5675    5.0806 H   0  0  0  0  0  0  0  0  0  0  0  0
   13.4972    9.5261    4.4943 H   0  0  0  0  0  0  0  0  0  0  0  0
   14.7126   10.1224    3.3713 H   0  0  0  0  0  0  0  0  0  0  0  0
   14.4548    9.9802    6.3406 H   0  0  0  0  0  0  0  0  0  0  0  0
   14.5938   11.4060    5.4222 H   0  0  0  0  0  0  0  0  0  0  0  0
   19.2456   11.3724    3.9141 H   0  0  0  0  0  0  0  0  0  0  0  0
   16.8049   11.2554    3.7481 H   0  0  0  0  0  0  0  0  0  0  0  0
   23.2941    9.5805    6.4252 H   0  0  0  0  0  0  0  0  0  0  0  0
   24.1031    8.4198    8.4732 H   0  0  0  0  0  0  0  0  0  0  0  0
   22.5584    8.0445   10.3863 H   0  0  0  0  0  0  0  0  0  0  0  0
   20.1935    8.7824   10.2310 H   0  0  0  0  0  0  0  0  0  0  0  0
   14.7264    8.7688    7.7528 H   0  0  0  0  0  0  0  0  0  0  0  0
   14.7601   10.4704    8.4269 H   0  0  0  0  0  0  0  0  0  0  0  0
   15.1350    9.0558    9.4136 H   0  0  0  0  0  0  0  0  0  0  0  0
  1  2  1  0  0  0  0
  1 35  1  0  0  0  0
  1 36  1  0  0  0  0
  1 37  1  0  0  0  0
  2  3  1  0  0  0  0
  2 38  1  0  0  0  0
  2 39  1  0  0  0  0
  3  4  1  0  0  0  0
  3 40  1  0  0  0  0
  3 41  1  0  0  0  0
  4  5  1  0  0  0  0
  4 42  1  0  0  0  0
  4 43  1  0  0  0  0
  5  6  1  0  0  0  0
  5 44  1  0  0  0  0
  5 45  1  0  0  0  0
  6  7  1  0  0  0  0
  6 46  1  0  0  0  0
  6 47  1  0  0  0  0
  7  8  1  0  0  0  0
  7 48  1  0  0  0  0
  7 49  1  0  0  0  0
  8  9  1  0  0  0  0
  8 50  1  0  0  0  0
  8 51  1  0  0  0  0
  9 10  1  0  0  0  0
  9 52  1  0  0  0  0
  9 53  1  0  0  0  0
 10 11  1  0  0  0  0
 10 54  1  0  0  0  0
 10 55  1  0  0  0  0
 11 12  1  0  0  0  0
 11 56  1  0  0  0  0
 11 57  1  0  0  0  0
 12 13  1  0  0  0  0
 12 58  1  0  0  0  0
 12 59  1  0  0  0  0
 13 14  1  0  0  0  0
 13 60  1  0  0  0  0
 13 61  1  0  0  0  0
 14 15  1  0  0  0  0
 14 62  1  0  0  0  0
 14 63  1  0  0  0  0
 15 16  1  0  0  0  0
 15 64  1  0  0  0  0
 15 65  1  0  0  0  0
 16 17  1  0  0  0  0
 16 66  1  0  0  0  0
 16 67  1  0  0  0  0
 17 18  1  0  0  0  0
 17 68  1  0  0  0  0
 17 69  1  0  0  0  0
 18 19  2  0  0  0  0
 18 23  1  0  0  0  0
 19 20  1  0  0  0  0
 19 33  1  0  0  0  0
 20 21  2  0  0  0  0
 20 32  1  0  0  0  0
 21 22  1  0  0  0  0
 21 24  1  0  0  0  0
 22 23  2  0  0  0  0
 22 70  1  0  0  0  0
 23 71  1  0  0  0  0
 24 25  2  0  0  0  0
 24 26  1  0  0  0  0
 26 27  2  0  0  0  0
 26 31  1  0  0  0  0
 27 28  1  0  0  0  0
 27 72  1  0  0  0  0
 28 29  2  0  0  0  0
 28 73  1  0  0  0  0
 29 30  1  0  0  0  0
 29 74  1  0  0  0  0
 30 31  2  0  0  0  0
 30 75  1  0  0  0  0
 31 32  1  0  0  0  0
 33 34  1  0  0  0  0
 34 76  1  0  0  0  0
 34 77  1  0  0  0  0
 34 78  1  0  0  0  0
M  END
$$$$
