
 OpenBabel02222212393D

 76 83  0  0  0  0  0  0  0  0999 V2000
   -3.1882    0.6306    3.6908 C   0  0  0  0  0  0  0  0  0  0  0  0
   -2.1674    0.0042    4.3883 C   0  0  0  0  0  0  0  0  0  0  0  0
   -1.1470   -0.6724    3.7152 C   0  0  0  0  0  0  0  0  0  0  0  0
   -1.1438   -0.7283    2.3180 C   0  0  0  0  0  0  0  0  0  0  0  0
   -1.9893    0.1498    1.6538 C   0  0  0  0  0  0  0  0  0  0  0  0
   -3.0488    0.7542    2.3266 C   0  0  0  0  0  0  0  0  0  0  0  0
   -3.9661    1.5392    1.7001 O   0  0  0  0  0  0  0  0  0  0  0  0
   -0.2165   -1.5492    1.7261 O   0  0  0  0  0  0  0  0  0  0  0  0
   -0.3483   -2.1652    0.4903 C   0  0  0  0  0  0  0  0  0  0  0  0
    0.8039   -2.8506    0.0740 C   0  0  0  0  0  0  0  0  0  0  0  0
    0.9574   -3.2184   -1.2642 C   0  0  0  0  0  0  0  0  0  0  0  0
   -0.1384   -3.1244   -2.1167 C   0  0  0  0  0  0  0  0  0  0  0  0
   -1.3853   -2.9259   -1.5818 C   0  0  0  0  0  0  0  0  0  0  0  0
   -1.4424   -2.2205   -0.3891 C   0  0  0  0  0  0  0  0  0  0  0  0
   -2.5502   -1.4361   -0.2860 O   0  0  0  0  0  0  0  0  0  0  0  0
   -3.6925   -1.9337   -0.8420 C   0  0  0  0  0  0  0  0  0  0  0  0
   -4.8297   -1.2166   -0.5838 C   0  0  0  0  0  0  0  0  0  0  0  0
   -6.0070   -1.8808   -0.5292 C   0  0  0  0  0  0  0  0  0  0  0  0
   -6.0072   -3.2448   -0.8551 C   0  0  0  0  0  0  0  0  0  0  0  0
   -4.9053   -3.9594   -1.4872 C   0  0  0  0  0  0  0  0  0  0  0  0
   -3.7164   -3.1722   -1.4890 C   0  0  0  0  0  0  0  0  0  0  0  0
   -2.5362   -3.4308   -2.1742 O   0  0  0  0  0  0  0  0  0  0  0  0
   -5.0266   -5.4030   -2.0663 C   0  0  0  0  0  0  0  0  0  0  0  0
   -3.9593   -6.1388   -2.6917 C   0  0  0  0  0  0  0  0  0  0  0  0
   -4.2099   -7.3018   -3.4494 C   0  0  0  0  0  0  0  0  0  0  0  0
   -5.3333   -8.0506   -3.2348 C   0  0  0  0  0  0  0  0  0  0  0  0
   -6.3677   -7.4762   -2.5426 C   0  0  0  0  0  0  0  0  0  0  0  0
   -6.2545   -6.1427   -2.1123 C   0  0  0  0  0  0  0  0  0  0  0  0
   -7.5217   -5.7004   -1.8283 O   0  0  0  0  0  0  0  0  0  0  0  0
   -5.4733   -9.3271   -3.6911 O   0  0  0  0  0  0  0  0  0  0  0  0
   -3.3835   -7.6748   -4.5081 O   0  0  0  0  0  0  0  0  0  0  0  0
   -2.2699   -6.8863   -4.6612 C   0  0  0  0  0  0  0  0  0  0  0  0
   -1.7729   -6.3046   -3.4982 C   0  0  0  0  0  0  0  0  0  0  0  0
   -2.6109   -5.9101   -2.4622 O   0  0  0  0  0  0  0  0  0  0  0  0
   -0.4289   -6.0403   -3.4372 C   0  0  0  0  0  0  0  0  0  0  0  0
    0.2684   -5.8347   -4.6115 C   0  0  0  0  0  0  0  0  0  0  0  0
   -0.4100   -5.9630   -5.8160 C   0  0  0  0  0  0  0  0  0  0  0  0
   -1.5964   -6.7179   -5.8836 C   0  0  0  0  0  0  0  0  0  0  0  0
   -2.1434   -7.3513   -7.0025 O   0  0  0  0  0  0  0  0  0  0  0  0
   -1.8999   -6.9411   -8.3009 C   0  0  0  0  0  0  0  0  0  0  0  0
   -0.6586   -6.5504   -8.8021 C   0  0  0  0  0  0  0  0  0  0  0  0
   -0.6111   -5.7272   -9.9243 C   0  0  0  0  0  0  0  0  0  0  0  0
   -1.6946   -5.6187  -10.7602 C   0  0  0  0  0  0  0  0  0  0  0  0
   -2.8328   -6.3655  -10.4546 C   0  0  0  0  0  0  0  0  0  0  0  0
   -2.9713   -6.9680   -9.1872 C   0  0  0  0  0  0  0  0  0  0  0  0
   -3.8123   -6.5096  -11.3756 O   0  0  0  0  0  0  0  0  0  0  0  0
    0.5056   -4.9783  -10.1353 O   0  0  0  0  0  0  0  0  0  0  0  0
    0.0445   -5.1748   -6.8271 O   0  0  0  0  0  0  0  0  0  0  0  0
    0.2260   -5.8777   -2.2539 O   0  0  0  0  0  0  0  0  0  0  0  0
   -7.1865   -3.8459   -0.4994 O   0  0  0  0  0  0  0  0  0  0  0  0
   -4.7999    0.1176   -0.3714 O   0  0  0  0  0  0  0  0  0  0  0  0
   -0.0010   -3.2004   -3.4660 O   0  0  0  0  0  0  0  0  0  0  0  0
    1.8131   -3.1644    0.9499 O   0  0  0  0  0  0  0  0  0  0  0  0
   -2.1367    0.0595    5.7483 O   0  0  0  0  0  0  0  0  0  0  0  0
   -4.0280    1.1098    4.1803 H   0  0  0  0  0  0  0  0  0  0  0  0
   -0.3489   -1.1351    4.2892 H   0  0  0  0  0  0  0  0  0  0  0  0
   -1.8222    0.3575    0.6075 H   0  0  0  0  0  0  0  0  0  0  0  0
   -3.6335    1.7946    0.8276 H   0  0  0  0  0  0  0  0  0  0  0  0
    1.9064   -3.5955   -1.6287 H   0  0  0  0  0  0  0  0  0  0  0  0
   -6.8833   -1.3555   -0.1674 H   0  0  0  0  0  0  0  0  0  0  0  0
   -7.3038   -8.0102   -2.4188 H   0  0  0  0  0  0  0  0  0  0  0  0
   -7.4716   -4.7798   -1.5422 H   0  0  0  0  0  0  0  0  0  0  0  0
   -4.6044   -9.5827   -4.0512 H   0  0  0  0  0  0  0  0  0  0  0  0
    1.2651   -5.4132   -4.5778 H   0  0  0  0  0  0  0  0  0  0  0  0
    0.2532   -6.7552   -8.2688 H   0  0  0  0  0  0  0  0  0  0  0  0
   -1.6490   -5.0002  -11.6528 H   0  0  0  0  0  0  0  0  0  0  0  0
   -3.9041   -7.4565   -8.9289 H   0  0  0  0  0  0  0  0  0  0  0  0
   -3.3798   -6.4603  -12.2499 H   0  0  0  0  0  0  0  0  0  0  0  0
    0.1907   -4.0493  -10.2109 H   0  0  0  0  0  0  0  0  0  0  0  0
    0.9879   -4.9749   -6.7081 H   0  0  0  0  0  0  0  0  0  0  0  0
   -0.4767   -5.7558   -1.5880 H   0  0  0  0  0  0  0  0  0  0  0  0
   -7.7573   -3.2159   -0.0034 H   0  0  0  0  0  0  0  0  0  0  0  0
   -3.8656    0.3529   -0.5011 H   0  0  0  0  0  0  0  0  0  0  0  0
    0.9366   -3.3367   -3.6721 H   0  0  0  0  0  0  0  0  0  0  0  0
    2.2773   -3.9494    0.6353 H   0  0  0  0  0  0  0  0  0  0  0  0
   -3.0088    0.3691    6.0515 H   0  0  0  0  0  0  0  0  0  0  0  0
  1  2  2  0  0  0  0
  1  6  1  0  0  0  0
  1 55  1  0  0  0  0
  2  3  1  0  0  0  0
  2 54  1  0  0  0  0
  3  4  2  0  0  0  0
  3 56  1  0  0  0  0
  4  5  1  0  0  0  0
  4  8  1  0  0  0  0
  5  6  2  0  0  0  0
  5 57  1  0  0  0  0
  6  7  1  0  0  0  0
  7 58  1  0  0  0  0
  8  9  1  0  0  0  0
  9 10  2  0  0  0  0
  9 14  1  0  0  0  0
 10 11  1  0  0  0  0
 10 53  1  0  0  0  0
 11 12  2  0  0  0  0
 11 59  1  0  0  0  0
 12 13  1  0  0  0  0
 12 52  1  0  0  0  0
 13 14  2  0  0  0  0
 13 22  1  0  0  0  0
 14 15  1  0  0  0  0
 15 16  1  0  0  0  0
 16 17  2  0  0  0  0
 16 21  1  0  0  0  0
 17 18  1  0  0  0  0
 17 51  1  0  0  0  0
 18 19  2  0  0  0  0
 18 60  1  0  0  0  0
 19 20  1  0  0  0  0
 19 50  1  0  0  0  0
 20 21  2  0  0  0  0
 20 23  1  0  0  0  0
 21 22  1  0  0  0  0
 23 24  2  0  0  0  0
 23 28  1  0  0  0  0
 24 25  1  0  0  0  0
 24 34  1  0  0  0  0
 25 26  2  0  0  0  0
 25 31  1  0  0  0  0
 26 27  1  0  0  0  0
 26 30  1  0  0  0  0
 27 28  2  0  0  0  0
 27 61  1  0  0  0  0
 28 29  1  0  0  0  0
 29 62  1  0  0  0  0
 30 63  1  0  0  0  0
 31 32  1  0  0  0  0
 32 33  2  0  0  0  0
 32 38  1  0  0  0  0
 33 34  1  0  0  0  0
 33 35  1  0  0  0  0
 35 36  2  0  0  0  0
 35 49  1  0  0  0  0
 36 37  1  0  0  0  0
 36 64  1  0  0  0  0
 37 38  2  0  0  0  0
 37 48  1  0  0  0  0
 38 39  1  0  0  0  0
 39 40  1  0  0  0  0
 40 41  2  0  0  0  0
 40 45  1  0  0  0  0
 41 42  1  0  0  0  0
 41 65  1  0  0  0  0
 42 43  2  0  0  0  0
 42 47  1  0  0  0  0
 43 44  1  0  0  0  0
 43 66  1  0  0  0  0
 44 45  2  0  0  0  0
 44 46  1  0  0  0  0
 45 67  1  0  0  0  0
 46 68  1  0  0  0  0
 47 69  1  0  0  0  0
 48 70  1  0  0  0  0
 49 71  1  0  0  0  0
 50 72  1  0  0  0  0
 51 73  1  0  0  0  0
 52 74  1  0  0  0  0
 53 75  1  0  0  0  0
 54 76  1  0  0  0  0
M  END
$$$$
