
 OpenBabel02242206173D

113119  0  0  1  0  0  0  0  0999 V2000
    4.2251    2.2838   -9.1050 C   0  0  0  0  0  0  0  0  0  0  0  0
    4.7510    1.5480   -7.8805 C   0  0  3  0  0  0  0  0  0  0  0  0
    6.2570    1.2221   -8.0407 C   0  0  3  0  0  0  0  0  0  0  0  0
    7.0540    2.4906   -7.7826 C   0  0  3  0  0  0  0  0  0  0  0  0
    6.6067    3.0372   -6.4198 C   0  0  3  0  0  0  0  0  0  0  0  0
    5.1242    3.4266   -6.2701 C   0  0  3  0  0  0  0  0  0  0  0  0
    4.3663    2.2467   -6.6576 O   0  0  0  0  0  0  0  0  0  0  0  0
    4.8641    3.7086   -4.8200 O   0  0  0  0  0  0  0  0  0  0  0  0
    5.6722    4.7617   -4.2090 C   0  0  0  0  0  0  0  0  0  0  0  0
    5.7203    4.8586   -2.6252 C   0  0  3  0  0  0  0  0  0  0  0  0
    6.6346    6.0103   -2.0992 C   0  0  3  0  0  0  0  0  0  0  0  0
    6.0276    7.3595   -2.4577 C   0  0  3  0  0  0  0  0  0  0  0  0
    4.6263    7.3873   -1.8667 C   0  0  3  0  0  0  0  0  0  0  0  0
    3.6900    6.1089   -2.1076 C   0  0  3  0  0  0  0  0  0  0  0  0
    4.4631    4.9167   -1.9446 O   0  0  0  0  0  0  0  0  0  0  0  0
    2.4639    5.8617   -1.3446 O   0  0  0  0  0  0  0  0  0  0  0  0
    1.9636    6.6627   -0.3742 C   0  0  0  0  0  0  0  0  0  0  0  0
    2.3627    7.9683   -0.2436 C   0  0  0  0  0  0  0  0  0  0  0  0
    2.0924    8.7099    0.8639 C   0  0  0  0  0  0  0  0  0  0  0  0
    1.0751    8.3088    1.6612 C   0  0  0  0  0  0  0  0  0  0  0  0
    0.7772    6.9692    1.6828 C   0  0  0  0  0  0  0  0  0  0  0  0
    1.1231    6.1364    0.6104 C   0  0  0  0  0  0  0  0  0  0  0  0
    0.5195    6.4436    2.9439 O   0  0  0  0  0  0  0  0  0  0  0  0
    1.1543    7.1786    4.0055 C   0  0  0  0  0  0  0  0  0  0  0  0
    1.1570    8.5422    4.0479 C   0  0  0  0  0  0  0  0  0  0  0  0
    0.5527    9.0680    2.8111 C   0  0  0  0  0  0  0  0  0  0  0  0
   -0.3543    9.8096    2.7805 O   0  0  0  0  0  0  0  0  0  0  0  0
    1.7275    9.4117    4.9677 O   0  0  0  0  0  0  0  0  0  0  0  0
    1.0483   10.6955    5.0783 C   0  0  3  0  0  0  0  0  0  0  0  0
    1.3876   11.4247    6.3826 C   0  0  3  0  0  0  0  0  0  0  0  0
    2.8832   11.7294    6.4667 C   0  0  3  0  0  0  0  0  0  0  0  0
    3.5162   11.8761    5.0991 C   0  0  3  0  0  0  0  0  0  0  0  0
    2.5191   12.4142    4.0889 C   0  0  3  0  0  0  0  0  0  0  0  0
    1.3515   11.5965    4.0090 O   0  0  0  0  0  0  0  0  0  0  0  0
    2.1521   13.9094    3.9502 C   0  0  0  0  0  0  0  0  0  0  0  0
    1.2445   14.1992    2.8520 O   0  0  0  0  0  0  0  0  0  0  0  0
    1.7212   14.1503    1.4910 C   0  0  3  0  0  0  0  0  0  0  0  0
    1.9216   12.7662    0.8766 C   0  0  3  0  0  0  0  0  0  0  0  0
    0.6327   11.9884    1.1236 C   0  0  3  0  0  0  0  0  0  0  0  0
   -0.6018   12.6333    0.5558 C   0  0  3  0  0  0  0  0  0  0  0  0
   -0.5616   14.1575    0.6942 C   0  0  3  0  0  0  0  0  0  0  0  0
    0.7465   14.7612    0.6045 O   0  0  0  0  0  0  0  0  0  0  0  0
   -1.4573   14.7700   -0.3726 C   0  0  0  0  0  0  0  0  0  0  0  0
   -0.6879   12.1713   -0.8175 O   0  0  0  0  0  0  0  0  0  0  0  0
    0.7141   10.7283    0.4911 O   0  0  0  0  0  0  0  0  0  0  0  0
    3.1326   12.1379    1.2853 O   0  0  0  0  0  0  0  0  0  0  0  0
    4.7325   12.6136    5.1870 O   0  0  0  0  0  0  0  0  0  0  0  0
    3.0657   12.9468    7.2044 O   0  0  0  0  0  0  0  0  0  0  0  0
    0.9782   10.7236    7.5537 O   0  0  0  0  0  0  0  0  0  0  0  0
    1.9121    6.3123    4.9217 C   0  0  0  0  0  0  0  0  0  0  0  0
    2.4858    5.1180    4.4423 C   0  0  0  0  0  0  0  0  0  0  0  0
    3.4330    4.4394    5.2032 C   0  0  0  0  0  0  0  0  0  0  0  0
    3.7388    4.9015    6.4737 C   0  0  0  0  0  0  0  0  0  0  0  0
    3.0961    6.0120    7.0097 C   0  0  0  0  0  0  0  0  0  0  0  0
    2.1829    6.7165    6.2288 C   0  0  0  0  0  0  0  0  0  0  0  0
    4.7053    4.2384    7.1661 O   0  0  0  0  0  0  0  0  0  0  0  0
    2.9237    9.7521    1.1294 O   0  0  0  0  0  0  0  0  0  0  0  0
    4.9404    7.5967   -0.4525 O   0  0  0  0  0  0  0  0  0  0  0  0
    6.8200    8.4271   -1.8616 O   0  0  0  0  0  0  0  0  0  0  0  0
    7.9643    5.9726   -2.5988 O   0  0  0  0  0  0  0  0  0  0  0  0
    6.7816    1.9650   -5.4529 O   0  0  0  0  0  0  0  0  0  0  0  0
    8.4606    2.1631   -7.8407 O   0  0  0  0  0  0  0  0  0  0  0  0
    6.5997    0.6874   -9.3247 O   0  0  0  0  0  0  0  0  0  0  0  0
    4.3269    1.6598  -10.0000 H   0  0  0  0  0  0  0  0  0  0  0  0
    4.7739    3.2142   -9.2769 H   0  0  0  0  0  0  0  0  0  0  0  0
    3.1744    2.5455   -8.9702 H   0  0  0  0  0  0  0  0  0  0  0  0
    4.2320    0.5817   -7.8361 H   0  0  0  0  0  0  0  0  0  0  0  0
    6.5543    0.4451   -7.3273 H   0  0  0  0  0  0  0  0  0  0  0  0
    6.9223    3.2260   -8.5841 H   0  0  0  0  0  0  0  0  0  0  0  0
    7.2409    3.8756   -6.1521 H   0  0  0  0  0  0  0  0  0  0  0  0
    4.7888    4.2887   -6.8619 H   0  0  0  0  0  0  0  0  0  0  0  0
    5.3422    5.7059   -4.6474 H   0  0  0  0  0  0  0  0  0  0  0  0
    6.7185    4.6082   -4.4671 H   0  0  0  0  0  0  0  0  0  0  0  0
    6.1698    3.9281   -2.2663 H   0  0  0  0  0  0  0  0  0  0  0  0
    6.7148    5.9446   -1.0027 H   0  0  0  0  0  0  0  0  0  0  0  0
    6.0830    7.5521   -3.5318 H   0  0  0  0  0  0  0  0  0  0  0  0
    4.1684    8.3081   -2.2577 H   0  0  0  0  0  0  0  0  0  0  0  0
    3.3275    6.1101   -3.1395 H   0  0  0  0  0  0  0  0  0  0  0  0
    3.0083    8.4640   -0.9176 H   0  0  0  0  0  0  0  0  0  0  0  0
    0.8381    5.0898    0.6072 H   0  0  0  0  0  0  0  0  0  0  0  0
   -0.0342   10.5132    5.0815 H   0  0  0  0  0  0  0  0  0  0  0  0
    0.8317   12.3734    6.3801 H   0  0  0  0  0  0  0  0  0  0  0  0
    3.4178   10.9496    7.0184 H   0  0  0  0  0  0  0  0  0  0  0  0
    3.7786   10.8681    4.7414 H   0  0  0  0  0  0  0  0  0  0  0  0
    3.0821   12.2314    3.2083 H   0  0  0  0  0  0  0  0  0  0  0  0
    3.0337   14.5548    3.8718 H   0  0  0  0  0  0  0  0  0  0  0  0
    1.6022   14.2178    4.8478 H   0  0  0  0  0  0  0  0  0  0  0  0
    2.6516   14.7233    1.4227 H   0  0  0  0  0  0  0  0  0  0  0  0
    2.0659   12.8318   -0.2016 H   0  0  0  0  0  0  0  0  0  0  0  0
    0.4486   11.8744    2.1802 H   0  0  0  0  0  0  0  0  0  0  0  0
   -1.4846   12.2213    1.0666 H   0  0  0  0  0  0  0  0  0  0  0  0
   -0.9506   14.4240    1.6804 H   0  0  0  0  0  0  0  0  0  0  0  0
   -1.1280   14.4999   -1.3844 H   0  0  0  0  0  0  0  0  0  0  0  0
   -1.4305   15.8575   -0.3146 H   0  0  0  0  0  0  0  0  0  0  0  0
   -2.4878   14.4195   -0.2467 H   0  0  0  0  0  0  0  0  0  0  0  0
   -1.6272   12.2218   -1.0659 H   0  0  0  0  0  0  0  0  0  0  0  0
    0.2868   10.8179   -0.3798 H   0  0  0  0  0  0  0  0  0  0  0  0
    2.8528   11.2347    1.5610 H   0  0  0  0  0  0  0  0  0  0  0  0
    5.4279   12.0440    4.8012 H   0  0  0  0  0  0  0  0  0  0  0  0
    3.9208   13.3063    6.8824 H   0  0  0  0  0  0  0  0  0  0  0  0
    1.2238   11.3194    8.2875 H   0  0  0  0  0  0  0  0  0  0  0  0
    2.2541    4.7309    3.4512 H   0  0  0  0  0  0  0  0  0  0  0  0
    3.9525    3.5778    4.7939 H   0  0  0  0  0  0  0  0  0  0  0  0
    3.3270    6.3843    8.0009 H   0  0  0  0  0  0  0  0  0  0  0  0
    1.7206    7.6138    6.6333 H   0  0  0  0  0  0  0  0  0  0  0  0
    4.5724    4.4187    8.1106 H   0  0  0  0  0  0  0  0  0  0  0  0
    3.5071    9.9115    0.3583 H   0  0  0  0  0  0  0  0  0  0  0  0
    4.9389    6.7161   -0.0253 H   0  0  0  0  0  0  0  0  0  0  0  0
    6.3220    8.7282   -1.0666 H   0  0  0  0  0  0  0  0  0  0  0  0
    8.3606    6.8263   -2.3152 H   0  0  0  0  0  0  0  0  0  0  0  0
    5.8567    1.6745   -5.2407 H   0  0  0  0  0  0  0  0  0  0  0  0
    8.7326    1.7974   -6.9779 H   0  0  0  0  0  0  0  0  0  0  0  0
    7.5728    0.5680   -9.3046 H   0  0  0  0  0  0  0  0  0  0  0  0
  1  2  1  0  0  0  0
  1 64  1  0  0  0  0
  1 65  1  0  0  0  0
  1 66  1  0  0  0  0
  2  3  1  0  0  0  0
  2  7  1  0  0  0  0
  2 67  1  0  0  0  0
  3  4  1  0  0  0  0
  3 63  1  0  0  0  0
  3 68  1  0  0  0  0
  4  5  1  0  0  0  0
  4 62  1  0  0  0  0
  4 69  1  0  0  0  0
  5  6  1  0  0  0  0
  5 61  1  0  0  0  0
  5 70  1  0  0  0  0
  6  7  1  0  0  0  0
  6  8  1  0  0  0  0
  6 71  1  0  0  0  0
  8  9  1  0  0  0  0
  9 10  1  0  0  0  0
  9 72  1  0  0  0  0
  9 73  1  0  0  0  0
 10 11  1  0  0  0  0
 10 15  1  0  0  0  0
 10 74  1  0  0  0  0
 11 12  1  0  0  0  0
 11 60  1  0  0  0  0
 11 75  1  0  0  0  0
 12 13  1  0  0  0  0
 12 59  1  0  0  0  0
 12 76  1  0  0  0  0
 13 14  1  0  0  0  0
 13 58  1  0  0  0  0
 13 77  1  0  0  0  0
 14 15  1  0  0  0  0
 14 16  1  0  0  0  0
 14 78  1  0  0  0  0
 16 17  1  0  0  0  0
 17 18  2  0  0  0  0
 17 22  1  0  0  0  0
 18 19  1  0  0  0  0
 18 79  1  0  0  0  0
 19 20  2  0  0  0  0
 19 57  1  0  0  0  0
 20 21  1  0  0  0  0
 20 26  1  0  0  0  0
 21 22  2  0  0  0  0
 21 23  1  0  0  0  0
 22 80  1  0  0  0  0
 23 24  1  0  0  0  0
 24 25  2  0  0  0  0
 24 50  1  0  0  0  0
 25 26  1  0  0  0  0
 25 28  1  0  0  0  0
 26 27  2  0  0  0  0
 28 29  1  0  0  0  0
 29 30  1  0  0  0  0
 29 34  1  0  0  0  0
 29 81  1  0  0  0  0
 30 31  1  0  0  0  0
 30 49  1  0  0  0  0
 30 82  1  0  0  0  0
 31 32  1  0  0  0  0
 31 48  1  0  0  0  0
 31 83  1  0  0  0  0
 32 33  1  0  0  0  0
 32 47  1  0  0  0  0
 32 84  1  0  0  0  0
 33 34  1  0  0  0  0
 33 35  1  0  0  0  0
 33 85  1  0  0  0  0
 35 36  1  0  0  0  0
 35 86  1  0  0  0  0
 35 87  1  0  0  0  0
 36 37  1  0  0  0  0
 37 38  1  0  0  0  0
 37 42  1  0  0  0  0
 37 88  1  0  0  0  0
 38 39  1  0  0  0  0
 38 46  1  0  0  0  0
 38 89  1  0  0  0  0
 39 40  1  0  0  0  0
 39 45  1  0  0  0  0
 39 90  1  0  0  0  0
 40 41  1  0  0  0  0
 40 44  1  0  0  0  0
 40 91  1  0  0  0  0
 41 42  1  0  0  0  0
 41 43  1  0  0  0  0
 41 92  1  0  0  0  0
 43 93  1  0  0  0  0
 43 94  1  0  0  0  0
 43 95  1  0  0  0  0
 44 96  1  0  0  0  0
 45 97  1  0  0  0  0
 46 98  1  0  0  0  0
 47 99  1  0  0  0  0
 48100  1  0  0  0  0
 49101  1  0  0  0  0
 50 51  2  0  0  0  0
 50 55  1  0  0  0  0
 51 52  1  0  0  0  0
 51102  1  0  0  0  0
 52 53  2  0  0  0  0
 52103  1  0  0  0  0
 53 54  1  0  0  0  0
 53 56  1  0  0  0  0
 54 55  2  0  0  0  0
 54104  1  0  0  0  0
 55105  1  0  0  0  0
 56106  1  0  0  0  0
 57107  1  0  0  0  0
 58108  1  0  0  0  0
 59109  1  0  0  0  0
 60110  1  0  0  0  0
 61111  1  0  0  0  0
 62112  1  0  0  0  0
 63113  1  0  0  0  0
M  END
$$$$
