
 OpenBabel02242206133D

113120  0  0  1  0  0  0  0  0999 V2000
    9.2967   16.4174    4.7684 C   0  0  0  0  0  0  0  0  0  0  0  0
    8.5309   16.4361    3.4427 C   0  0  3  0  0  0  0  0  0  0  0  0
    8.9416   15.2870    2.5266 C   0  0  0  0  0  0  0  0  0  0  0  0
    8.4570   13.9468    3.0560 C   0  0  0  0  0  0  0  0  0  0  0  0
    7.0114   13.9274    3.6164 C   0  0  3  0  0  0  0  0  0  0  0  0
    5.8598   13.4842    2.6788 C   0  0  3  0  0  0  0  0  0  0  0  0
    6.0294   11.9521    2.5719 C   0  0  3  0  0  0  0  0  0  0  0  0
    6.8645   11.6461    3.8429 C   0  0  3  0  0  0  0  0  0  0  0  0
    6.9973   12.8492    4.5853 O   0  0  0  0  0  0  0  0  0  0  0  0
    6.1616   10.5528    4.6313 C   0  0  0  0  0  0  0  0  0  0  0  0
    5.4763    9.8128    3.5016 C   0  0  3  0  0  0  0  0  0  0  0  0
    4.8082   10.9600    2.6762 C   0  0  3  0  0  0  0  0  0  0  0  0
    4.2839   10.3474    1.3478 C   0  0  0  0  0  0  0  0  0  0  0  0
    3.4061    9.0719    1.5686 C   0  0  0  0  0  0  0  0  0  0  0  0
    4.1917    8.0370    2.3901 C   0  0  3  0  0  0  0  0  0  0  0  0
    4.5402    8.6405    3.8034 C   0  0  3  0  0  0  0  0  0  0  0  0
    5.1306    7.6026    4.8012 C   0  0  0  0  0  0  0  0  0  0  0  0
    5.5475    6.3149    4.1504 C   0  0  0  0  0  0  0  0  0  0  0  0
    4.9622    5.8781    3.0430 C   0  0  0  0  0  0  0  0  0  0  0  0
    3.6870    6.5725    2.5138 C   0  0  3  0  0  0  0  0  0  0  0  0
    3.2407    5.8822    1.2049 C   0  0  0  0  0  0  0  0  0  0  0  0
    4.3128    5.8431    0.1319 C   0  0  0  0  0  0  0  0  0  0  0  0
    5.6548    5.2577    0.5932 C   0  0  3  0  0  0  0  0  0  0  0  0
    5.6616    4.8883    2.1184 C   0  0  0  0  0  0  0  0  0  0  0  0
    6.7524    6.1386    0.2039 O   0  0  0  0  0  0  0  0  0  0  0  0
    6.9295    6.2247   -1.2343 C   0  0  3  0  0  0  0  0  0  0  0  0
    7.9452    7.3200   -1.7312 C   0  0  3  0  0  0  0  0  0  0  0  0
    9.3631    6.9228   -1.2615 C   0  0  3  0  0  0  0  0  0  0  0  0
    9.6992    5.4994   -1.7281 C   0  0  3  0  0  0  0  0  0  0  0  0
    8.6104    4.5227   -1.2759 C   0  0  3  0  0  0  0  0  0  0  0  0
    7.3296    4.9526   -1.7751 O   0  0  0  0  0  0  0  0  0  0  0  0
    8.8704    3.0835   -1.7480 C   0  0  0  0  0  0  0  0  0  0  0  0
    9.0516    2.9706   -3.1580 O   0  0  0  0  0  0  0  0  0  0  0  0
    9.8476    5.4940   -3.1644 O   0  0  0  0  0  0  0  0  0  0  0  0
   10.3963    7.7770   -1.7716 O   0  0  0  0  0  0  0  0  0  0  0  0
    7.5193    8.6539   -1.3888 O   0  0  0  0  0  0  0  0  0  0  0  0
    8.3726    9.7237   -1.8334 C   0  0  3  0  0  0  0  0  0  0  0  0
    8.6132    9.8505   -3.3616 C   0  0  3  0  0  0  0  0  0  0  0  0
    7.2750   10.0855   -4.0682 C   0  0  3  0  0  0  0  0  0  0  0  0
    6.5895   11.3313   -3.5129 C   0  0  3  0  0  0  0  0  0  0  0  0
    6.5611   11.2995   -1.9829 C   0  0  3  0  0  0  0  0  0  0  0  0
    7.8316   10.9842   -1.4025 O   0  0  0  0  0  0  0  0  0  0  0  0
    6.2145   12.6551   -1.4178 C   0  0  0  0  0  0  0  0  0  0  0  0
    7.2956   12.4773   -4.0300 O   0  0  0  0  0  0  0  0  0  0  0  0
    7.5256   10.2552   -5.4751 O   0  0  0  0  0  0  0  0  0  0  0  0
    9.2838    8.7456   -3.9795 O   0  0  0  0  0  0  0  0  0  0  0  0
    2.4682    6.4483    3.4652 C   0  0  0  0  0  0  0  0  0  0  0  0
    3.6054   11.6220    3.3866 C   0  0  0  0  0  0  0  0  0  0  0  0
    5.7644   14.2164    1.3551 C   0  0  0  0  0  0  0  0  0  0  0  0
    6.6657   15.1229    4.3114 O   0  0  0  0  0  0  0  0  0  0  0  0
    7.0290   16.3456    3.6853 C   0  0  0  0  0  0  0  0  0  0  0  0
   10.3771   16.4472    4.5955 H   0  0  0  0  0  0  0  0  0  0  0  0
    9.0750   15.5267    5.3652 H   0  0  0  0  0  0  0  0  0  0  0  0
    9.0291   17.2915    5.3719 H   0  0  0  0  0  0  0  0  0  0  0  0
    8.7574   17.3821    2.9362 H   0  0  0  0  0  0  0  0  0  0  0  0
   10.0321   15.2628    2.4065 H   0  0  0  0  0  0  0  0  0  0  0  0
    8.5282   15.4544    1.5258 H   0  0  0  0  0  0  0  0  0  0  0  0
    9.1384   13.6598    3.8708 H   0  0  0  0  0  0  0  0  0  0  0  0
    8.6041   13.1747    2.2912 H   0  0  0  0  0  0  0  0  0  0  0  0
    4.9272   13.7152    3.2016 H   0  0  0  0  0  0  0  0  0  0  0  0
    6.6360   11.6815    1.6976 H   0  0  0  0  0  0  0  0  0  0  0  0
    7.8653   11.2971    3.5543 H   0  0  0  0  0  0  0  0  0  0  0  0
    5.4645   10.9481    5.3756 H   0  0  0  0  0  0  0  0  0  0  0  0
    6.8982    9.9436    5.1627 H   0  0  0  0  0  0  0  0  0  0  0  0
    6.2963    9.3916    2.8933 H   0  0  0  0  0  0  0  0  0  0  0  0
    5.1348   10.0642    0.7149 H   0  0  0  0  0  0  0  0  0  0  0  0
    3.7096   11.0871    0.7778 H   0  0  0  0  0  0  0  0  0  0  0  0
    3.1391    8.6636    0.5882 H   0  0  0  0  0  0  0  0  0  0  0  0
    2.4655    9.3256    2.0688 H   0  0  0  0  0  0  0  0  0  0  0  0
    5.1411    7.9526    1.8343 H   0  0  0  0  0  0  0  0  0  0  0  0
    3.6248    9.0245    4.2686 H   0  0  0  0  0  0  0  0  0  0  0  0
    4.3965    7.3895    5.5952 H   0  0  0  0  0  0  0  0  0  0  0  0
    5.9942    8.0135    5.3293 H   0  0  0  0  0  0  0  0  0  0  0  0
    6.4346    5.8385    4.5474 H   0  0  0  0  0  0  0  0  0  0  0  0
    2.3453    6.3695    0.7992 H   0  0  0  0  0  0  0  0  0  0  0  0
    2.9376    4.8472    1.4247 H   0  0  0  0  0  0  0  0  0  0  0  0
    4.4409    6.8566   -0.2597 H   0  0  0  0  0  0  0  0  0  0  0  0
    3.9393    5.2375   -0.7041 H   0  0  0  0  0  0  0  0  0  0  0  0
    5.8224    4.3035    0.0757 H   0  0  0  0  0  0  0  0  0  0  0  0
    6.7012    4.7537    2.4384 H   0  0  0  0  0  0  0  0  0  0  0  0
    5.1610    3.9167    2.2407 H   0  0  0  0  0  0  0  0  0  0  0  0
    5.9673    6.4785   -1.6900 H   0  0  0  0  0  0  0  0  0  0  0  0
    7.9058    7.2602   -2.8239 H   0  0  0  0  0  0  0  0  0  0  0  0
    9.4138    6.9944   -0.1701 H   0  0  0  0  0  0  0  0  0  0  0  0
   10.6757    5.2065   -1.3287 H   0  0  0  0  0  0  0  0  0  0  0  0
    8.5681    4.5032   -0.1810 H   0  0  0  0  0  0  0  0  0  0  0  0
    8.0155    2.4527   -1.4869 H   0  0  0  0  0  0  0  0  0  0  0  0
    9.7622    2.6793   -1.2587 H   0  0  0  0  0  0  0  0  0  0  0  0
    9.8752    3.4472   -3.3839 H   0  0  0  0  0  0  0  0  0  0  0  0
    8.9640    5.3349   -3.5553 H   0  0  0  0  0  0  0  0  0  0  0  0
   10.3263    7.7376   -2.7534 H   0  0  0  0  0  0  0  0  0  0  0  0
    9.3202    9.6544   -1.2989 H   0  0  0  0  0  0  0  0  0  0  0  0
    9.2619   10.7201   -3.5335 H   0  0  0  0  0  0  0  0  0  0  0  0
    6.6317    9.2057   -3.9597 H   0  0  0  0  0  0  0  0  0  0  0  0
    5.5704   11.4098   -3.9075 H   0  0  0  0  0  0  0  0  0  0  0  0
    5.8264   10.5654   -1.6333 H   0  0  0  0  0  0  0  0  0  0  0  0
    6.9999   13.3999   -1.5966 H   0  0  0  0  0  0  0  0  0  0  0  0
    6.1695   12.5154   -0.3440 H   0  0  0  0  0  0  0  0  0  0  0  0
    5.2595   13.0420   -1.7784 H   0  0  0  0  0  0  0  0  0  0  0  0
    8.0049   12.7057   -3.3997 H   0  0  0  0  0  0  0  0  0  0  0  0
    7.5332   11.2262   -5.6220 H   0  0  0  0  0  0  0  0  0  0  0  0
    9.1919    8.9164   -4.9419 H   0  0  0  0  0  0  0  0  0  0  0  0
    2.6172    6.8893    4.4524 H   0  0  0  0  0  0  0  0  0  0  0  0
    2.2045    5.3970    3.6346 H   0  0  0  0  0  0  0  0  0  0  0  0
    1.5910    6.9441    3.0333 H   0  0  0  0  0  0  0  0  0  0  0  0
    3.8861   12.1015    4.3284 H   0  0  0  0  0  0  0  0  0  0  0  0
    2.8051   10.9151    3.6172 H   0  0  0  0  0  0  0  0  0  0  0  0
    3.1625   12.3919    2.7429 H   0  0  0  0  0  0  0  0  0  0  0  0
    6.7166   14.2098    0.8182 H   0  0  0  0  0  0  0  0  0  0  0  0
    5.4673   15.2582    1.4808 H   0  0  0  0  0  0  0  0  0  0  0  0
    4.9822   13.7699    0.7349 H   0  0  0  0  0  0  0  0  0  0  0  0
    6.7040   17.1588    4.3422 H   0  0  0  0  0  0  0  0  0  0  0  0
    6.4823   16.4767    2.7495 H   0  0  0  0  0  0  0  0  0  0  0  0
  1  2  1  0  0  0  0
  1 52  1  0  0  0  0
  1 53  1  0  0  0  0
  1 54  1  0  0  0  0
  2  3  1  0  0  0  0
  2 51  1  0  0  0  0
  2 55  1  0  0  0  0
  3  4  1  0  0  0  0
  3 56  1  0  0  0  0
  3 57  1  0  0  0  0
  4  5  1  0  0  0  0
  4 58  1  0  0  0  0
  4 59  1  0  0  0  0
  5  6  1  0  0  0  0
  5  9  1  0  0  0  0
  5 50  1  0  0  0  0
  6  7  1  0  0  0  0
  6 49  1  0  0  0  0
  6 60  1  0  0  0  0
  7  8  1  0  0  0  0
  7 12  1  0  0  0  0
  7 61  1  0  0  0  0
  8  9  1  0  0  0  0
  8 10  1  0  0  0  0
  8 62  1  0  0  0  0
 10 11  1  0  0  0  0
 10 63  1  0  0  0  0
 10 64  1  0  0  0  0
 11 12  1  0  0  0  0
 11 16  1  0  0  0  0
 11 65  1  0  0  0  0
 12 13  1  0  0  0  0
 12 48  1  0  0  0  0
 13 14  1  0  0  0  0
 13 66  1  0  0  0  0
 13 67  1  0  0  0  0
 14 15  1  0  0  0  0
 14 68  1  0  0  0  0
 14 69  1  0  0  0  0
 15 16  1  0  0  0  0
 15 20  1  0  0  0  0
 15 70  1  0  0  0  0
 16 17  1  0  0  0  0
 16 71  1  0  0  0  0
 17 18  1  0  0  0  0
 17 72  1  0  0  0  0
 17 73  1  0  0  0  0
 18 19  2  0  0  0  0
 18 74  1  0  0  0  0
 19 20  1  0  0  0  0
 19 24  1  0  0  0  0
 20 21  1  0  0  0  0
 20 47  1  0  0  0  0
 21 22  1  0  0  0  0
 21 75  1  0  0  0  0
 21 76  1  0  0  0  0
 22 23  1  0  0  0  0
 22 77  1  0  0  0  0
 22 78  1  0  0  0  0
 23 24  1  0  0  0  0
 23 25  1  0  0  0  0
 23 79  1  0  0  0  0
 24 80  1  0  0  0  0
 24 81  1  0  0  0  0
 25 26  1  0  0  0  0
 26 27  1  0  0  0  0
 26 31  1  0  0  0  0
 26 82  1  0  0  0  0
 27 28  1  0  0  0  0
 27 36  1  0  0  0  0
 27 83  1  0  0  0  0
 28 29  1  0  0  0  0
 28 35  1  0  0  0  0
 28 84  1  0  0  0  0
 29 30  1  0  0  0  0
 29 34  1  0  0  0  0
 29 85  1  0  0  0  0
 30 31  1  0  0  0  0
 30 32  1  0  0  0  0
 30 86  1  0  0  0  0
 32 33  1  0  0  0  0
 32 87  1  0  0  0  0
 32 88  1  0  0  0  0
 33 89  1  0  0  0  0
 34 90  1  0  0  0  0
 35 91  1  0  0  0  0
 36 37  1  0  0  0  0
 37 38  1  0  0  0  0
 37 42  1  0  0  0  0
 37 92  1  0  0  0  0
 38 39  1  0  0  0  0
 38 46  1  0  0  0  0
 38 93  1  0  0  0  0
 39 40  1  0  0  0  0
 39 45  1  0  0  0  0
 39 94  1  0  0  0  0
 40 41  1  0  0  0  0
 40 44  1  0  0  0  0
 40 95  1  0  0  0  0
 41 42  1  0  0  0  0
 41 43  1  0  0  0  0
 41 96  1  0  0  0  0
 43 97  1  0  0  0  0
 43 98  1  0  0  0  0
 43 99  1  0  0  0  0
 44100  1  0  0  0  0
 45101  1  0  0  0  0
 46102  1  0  0  0  0
 47103  1  0  0  0  0
 47104  1  0  0  0  0
 47105  1  0  0  0  0
 48106  1  0  0  0  0
 48107  1  0  0  0  0
 48108  1  0  0  0  0
 49109  1  0  0  0  0
 49110  1  0  0  0  0
 49111  1  0  0  0  0
 50 51  1  0  0  0  0
 51112  1  0  0  0  0
 51113  1  0  0  0  0
M  END
$$$$
