
 OpenBabel02242206083D

160168  0  0  1  0  0  0  0  0999 V2000
   -2.1221   12.3081    4.6852 C   0  0  0  0  0  0  0  0  0  0  0  0
   -0.6218   12.2376    4.3752 C   0  0  3  0  0  0  0  0  0  0  0  0
    0.0012   13.6363    4.2079 C   0  0  3  0  0  0  0  0  0  0  0  0
    0.3197   14.2457    5.5733 C   0  0  3  0  0  0  0  0  0  0  0  0
    1.1849   13.2879    6.3797 C   0  0  3  0  0  0  0  0  0  0  0  0
    0.4224   11.9723    6.5844 C   0  0  3  0  0  0  0  0  0  0  0  0
    0.1070   11.3851    5.3043 O   0  0  0  0  0  0  0  0  0  0  0  0
    1.2821   11.1502    7.4262 O   0  0  0  0  0  0  0  0  0  0  0  0
    0.7756    9.8207    7.6437 C   0  0  3  0  0  0  0  0  0  0  0  0
    1.7547    8.8753    8.4162 C   0  0  3  0  0  0  0  0  0  0  0  0
    1.6555    9.0093    9.9615 C   0  0  3  0  0  0  0  0  0  0  0  0
    0.3026    9.5014   10.5071 C   0  0  0  0  0  0  0  0  0  0  0  0
   -0.4290   10.3486    9.6332 O   0  0  0  0  0  0  0  0  0  0  0  0
   -0.6091    9.7361    8.3436 C   0  0  3  0  0  0  0  0  0  0  0  0
   -1.1720    8.4124    8.4987 O   0  0  0  0  0  0  0  0  0  0  0  0
   -1.5503    7.7288    7.2944 C   0  0  3  0  0  0  0  0  0  0  0  0
   -0.3168    7.1952    6.5509 C   0  0  0  0  0  0  0  0  0  0  0  0
   -0.4996    6.4290    5.2418 C   0  0  0  0  0  0  0  0  0  0  0  0
   -1.4793    5.2444    5.3687 C   0  0  3  0  0  0  0  0  0  0  0  0
   -2.7120    5.9178    6.0849 C   0  0  3  0  0  0  0  0  0  0  0  0
   -2.4587    6.4687    7.5575 C   0  0  0  0  0  0  0  0  0  0  0  0
   -1.8408    5.4881    8.5956 C   0  0  0  0  0  0  0  0  0  0  0  0
   -3.8156    6.7950    8.2051 C   0  0  0  0  0  0  0  0  0  0  0  0
   -4.0747    5.2786    5.8542 C   0  0  0  0  0  0  0  0  0  0  0  0
   -4.3052    4.9539    4.3910 C   0  0  0  0  0  0  0  0  0  0  0  0
   -3.2439    3.9777    3.8610 C   0  0  3  0  0  0  0  0  0  0  0  0
   -1.8683    4.7400    3.9158 C   0  0  3  0  0  0  0  0  0  0  0  0
   -0.7580    4.0388    3.0603 C   0  0  0  0  0  0  0  0  0  0  0  0
   -1.2030    2.8150    2.2759 C   0  0  0  0  0  0  0  0  0  0  0  0
   -2.4931    2.4799    2.0109 C   0  0  0  0  0  0  0  0  0  0  0  0
   -3.5373    3.5455    2.3515 C   0  0  3  0  0  0  0  0  0  0  0  0
   -4.9728    3.0539    2.1156 C   0  0  0  0  0  0  0  0  0  0  0  0
   -5.2311    1.6570    2.6175 C   0  0  0  0  0  0  0  0  0  0  0  0
   -4.4704    0.6202    1.7721 C   0  0  3  0  0  0  0  0  0  0  0  0
   -2.9214    1.0057    1.6228 C   0  0  3  0  0  0  0  0  0  0  0  0
   -1.9285    0.0203    2.3421 C   0  0  0  0  0  0  0  0  0  0  0  0
   -2.4072   -1.3850    2.7277 C   0  0  0  0  0  0  0  0  0  0  0  0
   -3.7741   -1.2577    3.3947 C   0  0  0  0  0  0  0  0  0  0  0  0
   -4.8017   -0.7626    2.4036 C   0  0  0  0  0  0  0  0  0  0  0  0
   -1.4300   -1.9914    3.7560 C   0  0  0  0  0  0  0  0  0  0  0  0
   -2.4440   -2.3032    1.4951 C   0  0  0  0  0  0  0  0  0  0  0  0
   -5.1559    0.5542    0.3590 C   0  0  0  0  0  0  0  0  0  0  0  0
   -4.6316    0.2969   -0.6716 O   0  0  0  0  0  0  0  0  0  0  0  0
   -6.4941    0.7887    0.5583 O   0  0  0  0  0  0  0  0  0  0  0  0
   -7.4392    0.6350   -0.5128 C   0  0  3  0  0  0  0  0  0  0  0  0
   -7.7947   -0.8468   -0.7026 C   0  0  3  0  0  0  0  0  0  0  0  0
   -8.4958   -1.3618    0.5640 C   0  0  3  0  0  0  0  0  0  0  0  0
   -9.7308   -0.5187    0.8989 C   0  0  3  0  0  0  0  0  0  0  0  0
   -9.3397    0.9623    0.9903 C   0  0  3  0  0  0  0  0  0  0  0  0
   -8.6466    1.3900   -0.2104 O   0  0  0  0  0  0  0  0  0  0  0  0
  -10.5695    1.8695    1.1744 C   0  0  0  0  0  0  0  0  0  0  0  0
  -10.1487    3.2298    1.2865 O   0  0  0  0  0  0  0  0  0  0  0  0
  -10.7268   -0.7583   -0.1087 O   0  0  0  0  0  0  0  0  0  0  0  0
   -8.8539   -2.7366    0.3727 O   0  0  0  0  0  0  0  0  0  0  0  0
   -6.6343   -1.6348   -0.9717 O   0  0  0  0  0  0  0  0  0  0  0  0
   -3.3913    4.7399    1.3499 C   0  0  0  0  0  0  0  0  0  0  0  0
   -3.2714    2.7498    4.8183 C   0  0  0  0  0  0  0  0  0  0  0  0
   -0.8042    4.1181    6.1786 C   0  0  0  0  0  0  0  0  0  0  0  0
    1.9408    7.7225   10.5633 O   0  0  0  0  0  0  0  0  0  0  0  0
    3.1453    8.9384    8.0002 O   0  0  0  0  0  0  0  0  0  0  0  0
    3.3878    8.6235    6.6148 C   0  0  3  0  0  0  0  0  0  0  0  0
    4.8935    8.7940    6.3027 C   0  0  3  0  0  0  0  0  0  0  0  0
    5.7262    7.6657    6.9372 C   0  0  3  0  0  0  0  0  0  0  0  0
    5.1599    6.2920    6.6060 C   0  0  3  0  0  0  0  0  0  0  0  0
    3.6706    6.2509    6.8741 C   0  0  3  0  0  0  0  0  0  0  0  0
    2.9399    7.3205    6.2292 O   0  0  0  0  0  0  0  0  0  0  0  0
    3.1283    4.9280    6.3460 C   0  0  0  0  0  0  0  0  0  0  0  0
    1.7825    4.9084    6.6990 O   0  0  0  0  0  0  0  0  0  0  0  0
    5.4454    6.0097    5.2208 O   0  0  0  0  0  0  0  0  0  0  0  0
    7.0768    7.6864    6.4450 O   0  0  0  0  0  0  0  0  0  0  0  0
    5.3461   10.0780    6.7582 O   0  0  0  0  0  0  0  0  0  0  0  0
    2.4123   13.0903    5.6419 O   0  0  0  0  0  0  0  0  0  0  0  0
    1.0143   15.4819    5.3607 O   0  0  0  0  0  0  0  0  0  0  0  0
   -0.8563   14.5207    3.4763 O   0  0  0  0  0  0  0  0  0  0  0  0
   -2.6428   13.0198    4.0314 H   0  0  0  0  0  0  0  0  0  0  0  0
   -2.3164   12.5974    5.7202 H   0  0  0  0  0  0  0  0  0  0  0  0
   -2.5869   11.3323    4.5161 H   0  0  0  0  0  0  0  0  0  0  0  0
   -0.5539   11.7443    3.3955 H   0  0  0  0  0  0  0  0  0  0  0  0
    0.9203   13.5532    3.6154 H   0  0  0  0  0  0  0  0  0  0  0  0
   -0.6042   14.4857    6.1121 H   0  0  0  0  0  0  0  0  0  0  0  0
    1.4725   13.7161    7.3441 H   0  0  0  0  0  0  0  0  0  0  0  0
   -0.5037   12.1605    7.1307 H   0  0  0  0  0  0  0  0  0  0  0  0
    0.7049    9.5015    6.6223 H   0  0  0  0  0  0  0  0  0  0  0  0
    1.4742    7.8383    8.2363 H   0  0  0  0  0  0  0  0  0  0  0  0
    2.4522    9.6730   10.3069 H   0  0  0  0  0  0  0  0  0  0  0  0
    0.4920   10.0606   11.4320 H   0  0  0  0  0  0  0  0  0  0  0  0
   -0.3486    8.6725   10.8140 H   0  0  0  0  0  0  0  0  0  0  0  0
   -1.3465   10.3656    7.8393 H   0  0  0  0  0  0  0  0  0  0  0  0
   -2.0928    8.4448    6.6648 H   0  0  0  0  0  0  0  0  0  0  0  0
    0.2479    6.6487    7.3006 H   0  0  0  0  0  0  0  0  0  0  0  0
    0.3404    7.9632    6.2155 H   0  0  0  0  0  0  0  0  0  0  0  0
    0.4702    6.1159    4.8387 H   0  0  0  0  0  0  0  0  0  0  0  0
   -0.8545    7.1661    4.5081 H   0  0  0  0  0  0  0  0  0  0  0  0
   -2.8613    6.8398    5.4927 H   0  0  0  0  0  0  0  0  0  0  0  0
   -0.7580    5.3793    8.5534 H   0  0  0  0  0  0  0  0  0  0  0  0
   -2.3009    4.4968    8.5202 H   0  0  0  0  0  0  0  0  0  0  0  0
   -2.0093    5.8318    9.6236 H   0  0  0  0  0  0  0  0  0  0  0  0
   -4.3451    7.5730    7.6557 H   0  0  0  0  0  0  0  0  0  0  0  0
   -3.7377    7.0821    9.2565 H   0  0  0  0  0  0  0  0  0  0  0  0
   -4.4319    5.8830    8.2157 H   0  0  0  0  0  0  0  0  0  0  0  0
   -4.8664    5.9926    6.1037 H   0  0  0  0  0  0  0  0  0  0  0  0
   -4.2202    4.4118    6.5021 H   0  0  0  0  0  0  0  0  0  0  0  0
   -4.3063    5.8837    3.8068 H   0  0  0  0  0  0  0  0  0  0  0  0
   -5.3128    4.5402    4.3226 H   0  0  0  0  0  0  0  0  0  0  0  0
   -2.0368    5.6858    3.3764 H   0  0  0  0  0  0  0  0  0  0  0  0
    0.0953    3.7384    3.6727 H   0  0  0  0  0  0  0  0  0  0  0  0
   -0.3321    4.7640    2.3529 H   0  0  0  0  0  0  0  0  0  0  0  0
   -0.3952    2.1250    2.0421 H   0  0  0  0  0  0  0  0  0  0  0  0
   -5.1951    3.0826    1.0395 H   0  0  0  0  0  0  0  0  0  0  0  0
   -5.7111    3.7366    2.5421 H   0  0  0  0  0  0  0  0  0  0  0  0
   -6.3159    1.4995    2.5996 H   0  0  0  0  0  0  0  0  0  0  0  0
   -4.9956    1.5078    3.6588 H   0  0  0  0  0  0  0  0  0  0  0  0
   -2.6721    0.9382    0.5542 H   0  0  0  0  0  0  0  0  0  0  0  0
   -1.5828    0.4835    3.2750 H   0  0  0  0  0  0  0  0  0  0  0  0
   -1.0254   -0.0753    1.7215 H   0  0  0  0  0  0  0  0  0  0  0  0
   -3.7231   -0.5726    4.2522 H   0  0  0  0  0  0  0  0  0  0  0  0
   -4.0992   -2.2253    3.7974 H   0  0  0  0  0  0  0  0  0  0  0  0
   -5.7702   -0.7197    2.9221 H   0  0  0  0  0  0  0  0  0  0  0  0
   -4.9549   -1.5284    1.6332 H   0  0  0  0  0  0  0  0  0  0  0  0
   -1.3782   -1.3790    4.6645 H   0  0  0  0  0  0  0  0  0  0  0  0
   -0.4168   -2.0645    3.3469 H   0  0  0  0  0  0  0  0  0  0  0  0
   -1.7476   -2.9962    4.0564 H   0  0  0  0  0  0  0  0  0  0  0  0
   -2.9751   -1.8460    0.6543 H   0  0  0  0  0  0  0  0  0  0  0  0
   -2.9387   -3.2523    1.7309 H   0  0  0  0  0  0  0  0  0  0  0  0
   -1.4324   -2.5326    1.1438 H   0  0  0  0  0  0  0  0  0  0  0  0
   -7.0109    1.0708   -1.4196 H   0  0  0  0  0  0  0  0  0  0  0  0
   -8.4604   -0.9570   -1.5663 H   0  0  0  0  0  0  0  0  0  0  0  0
   -7.7967   -1.3473    1.4073 H   0  0  0  0  0  0  0  0  0  0  0  0
  -10.1699   -0.8644    1.8416 H   0  0  0  0  0  0  0  0  0  0  0  0
   -8.6727    1.1241    1.8464 H   0  0  0  0  0  0  0  0  0  0  0  0
  -11.1234    1.6155    2.0844 H   0  0  0  0  0  0  0  0  0  0  0  0
  -11.2548    1.8102    0.3225 H   0  0  0  0  0  0  0  0  0  0  0  0
   -9.4745    3.3612    0.5923 H   0  0  0  0  0  0  0  0  0  0  0  0
  -10.5559   -0.1667   -0.8659 H   0  0  0  0  0  0  0  0  0  0  0  0
   -9.7793   -2.7383    0.0516 H   0  0  0  0  0  0  0  0  0  0  0  0
   -6.7353   -2.4792   -0.4944 H   0  0  0  0  0  0  0  0  0  0  0  0
   -2.4038    5.2075    1.3403 H   0  0  0  0  0  0  0  0  0  0  0  0
   -4.1219    5.5277    1.5633 H   0  0  0  0  0  0  0  0  0  0  0  0
   -3.5631    4.4075    0.3183 H   0  0  0  0  0  0  0  0  0  0  0  0
   -2.8798    2.9488    5.8008 H   0  0  0  0  0  0  0  0  0  0  0  0
   -2.7228    1.8818    4.4632 H   0  0  0  0  0  0  0  0  0  0  0  0
   -4.2951    2.4639    5.0624 H   0  0  0  0  0  0  0  0  0  0  0  0
   -0.1948    4.5168    6.9696 H   0  0  0  0  0  0  0  0  0  0  0  0
   -0.1366    3.4843    5.5929 H   0  0  0  0  0  0  0  0  0  0  0  0
   -1.4666    3.4692    6.7386 H   0  0  0  0  0  0  0  0  0  0  0  0
    1.5971    7.7260   11.4756 H   0  0  0  0  0  0  0  0  0  0  0  0
    2.8530    9.3647    6.0110 H   0  0  0  0  0  0  0  0  0  0  0  0
    5.0438    8.7726    5.2168 H   0  0  0  0  0  0  0  0  0  0  0  0
    5.7756    7.8018    8.0224 H   0  0  0  0  0  0  0  0  0  0  0  0
    5.6650    5.5185    7.1960 H   0  0  0  0  0  0  0  0  0  0  0  0
    3.4511    6.3263    7.9461 H   0  0  0  0  0  0  0  0  0  0  0  0
    3.5832    4.0535    6.8070 H   0  0  0  0  0  0  0  0  0  0  0  0
    3.1622    4.8535    5.2540 H   0  0  0  0  0  0  0  0  0  0  0  0
    1.4967    5.7773    6.3714 H   0  0  0  0  0  0  0  0  0  0  0  0
    5.6178    5.0514    5.1497 H   0  0  0  0  0  0  0  0  0  0  0  0
    7.0158    7.3437    5.5290 H   0  0  0  0  0  0  0  0  0  0  0  0
    4.9826   10.1921    7.6578 H   0  0  0  0  0  0  0  0  0  0  0  0
    2.5705   12.1256    5.6084 H   0  0  0  0  0  0  0  0  0  0  0  0
    1.9440   15.2237    5.1859 H   0  0  0  0  0  0  0  0  0  0  0  0
   -0.5071   15.4218    3.6306 H   0  0  0  0  0  0  0  0  0  0  0  0
  1  2  1  0  0  0  0
  1 75  1  0  0  0  0
  1 76  1  0  0  0  0
  1 77  1  0  0  0  0
  2  3  1  0  0  0  0
  2  7  1  0  0  0  0
  2 78  1  0  0  0  0
  3  4  1  0  0  0  0
  3 74  1  0  0  0  0
  3 79  1  0  0  0  0
  4  5  1  0  0  0  0
  4 73  1  0  0  0  0
  4 80  1  0  0  0  0
  5  6  1  0  0  0  0
  5 72  1  0  0  0  0
  5 81  1  0  0  0  0
  6  7  1  0  0  0  0
  6  8  1  0  0  0  0
  6 82  1  0  0  0  0
  8  9  1  0  0  0  0
  9 10  1  0  0  0  0
  9 14  1  0  0  0  0
  9 83  1  0  0  0  0
 10 11  1  0  0  0  0
 10 60  1  0  0  0  0
 10 84  1  0  0  0  0
 11 12  1  0  0  0  0
 11 59  1  0  0  0  0
 11 85  1  0  0  0  0
 12 13  1  0  0  0  0
 12 86  1  0  0  0  0
 12 87  1  0  0  0  0
 13 14  1  0  0  0  0
 14 15  1  0  0  0  0
 14 88  1  0  0  0  0
 15 16  1  0  0  0  0
 16 17  1  0  0  0  0
 16 21  1  0  0  0  0
 16 89  1  0  0  0  0
 17 18  1  0  0  0  0
 17 90  1  0  0  0  0
 17 91  1  0  0  0  0
 18 19  1  0  0  0  0
 18 92  1  0  0  0  0
 18 93  1  0  0  0  0
 19 20  1  0  0  0  0
 19 27  1  0  0  0  0
 19 58  1  0  0  0  0
 20 21  1  0  0  0  0
 20 24  1  0  0  0  0
 20 94  1  0  0  0  0
 21 22  1  0  0  0  0
 21 23  1  0  0  0  0
 22 95  1  0  0  0  0
 22 96  1  0  0  0  0
 22 97  1  0  0  0  0
 23 98  1  0  0  0  0
 23 99  1  0  0  0  0
 23100  1  0  0  0  0
 24 25  1  0  0  0  0
 24101  1  0  0  0  0
 24102  1  0  0  0  0
 25 26  1  0  0  0  0
 25103  1  0  0  0  0
 25104  1  0  0  0  0
 26 27  1  0  0  0  0
 26 31  1  0  0  0  0
 26 57  1  0  0  0  0
 27 28  1  0  0  0  0
 27105  1  0  0  0  0
 28 29  1  0  0  0  0
 28106  1  0  0  0  0
 28107  1  0  0  0  0
 29 30  2  0  0  0  0
 29108  1  0  0  0  0
 30 31  1  0  0  0  0
 30 35  1  0  0  0  0
 31 32  1  0  0  0  0
 31 56  1  0  0  0  0
 32 33  1  0  0  0  0
 32109  1  0  0  0  0
 32110  1  0  0  0  0
 33 34  1  0  0  0  0
 33111  1  0  0  0  0
 33112  1  0  0  0  0
 34 35  1  0  0  0  0
 34 39  1  0  0  0  0
 34 42  1  0  0  0  0
 35 36  1  0  0  0  0
 35113  1  0  0  0  0
 36 37  1  0  0  0  0
 36114  1  0  0  0  0
 36115  1  0  0  0  0
 37 38  1  0  0  0  0
 37 40  1  0  0  0  0
 37 41  1  0  0  0  0
 38 39  1  0  0  0  0
 38116  1  0  0  0  0
 38117  1  0  0  0  0
 39118  1  0  0  0  0
 39119  1  0  0  0  0
 40120  1  0  0  0  0
 40121  1  0  0  0  0
 40122  1  0  0  0  0
 41123  1  0  0  0  0
 41124  1  0  0  0  0
 41125  1  0  0  0  0
 42 43  2  0  0  0  0
 42 44  1  0  0  0  0
 44 45  1  0  0  0  0
 45 46  1  0  0  0  0
 45 50  1  0  0  0  0
 45126  1  0  0  0  0
 46 47  1  0  0  0  0
 46 55  1  0  0  0  0
 46127  1  0  0  0  0
 47 48  1  0  0  0  0
 47 54  1  0  0  0  0
 47128  1  0  0  0  0
 48 49  1  0  0  0  0
 48 53  1  0  0  0  0
 48129  1  0  0  0  0
 49 50  1  0  0  0  0
 49 51  1  0  0  0  0
 49130  1  0  0  0  0
 51 52  1  0  0  0  0
 51131  1  0  0  0  0
 51132  1  0  0  0  0
 52133  1  0  0  0  0
 53134  1  0  0  0  0
 54135  1  0  0  0  0
 55136  1  0  0  0  0
 56137  1  0  0  0  0
 56138  1  0  0  0  0
 56139  1  0  0  0  0
 57140  1  0  0  0  0
 57141  1  0  0  0  0
 57142  1  0  0  0  0
 58143  1  0  0  0  0
 58144  1  0  0  0  0
 58145  1  0  0  0  0
 59146  1  0  0  0  0
 60 61  1  0  0  0  0
 61 62  1  0  0  0  0
 61 66  1  0  0  0  0
 61147  1  0  0  0  0
 62 63  1  0  0  0  0
 62 71  1  0  0  0  0
 62148  1  0  0  0  0
 63 64  1  0  0  0  0
 63 70  1  0  0  0  0
 63149  1  0  0  0  0
 64 65  1  0  0  0  0
 64 69  1  0  0  0  0
 64150  1  0  0  0  0
 65 66  1  0  0  0  0
 65 67  1  0  0  0  0
 65151  1  0  0  0  0
 67 68  1  0  0  0  0
 67152  1  0  0  0  0
 67153  1  0  0  0  0
 68154  1  0  0  0  0
 69155  1  0  0  0  0
 70156  1  0  0  0  0
 71157  1  0  0  0  0
 72158  1  0  0  0  0
 73159  1  0  0  0  0
 74160  1  0  0  0  0
M  END
$$$$
